/pdc/vol/ansys/19.1/v191/fluent/fluent19.1.0/bin/fluent -r19.1.0 3ddp -g -slurm -t 96 -mpi=ibmmpi -pib -i journal.jou
/pdc/vol/ansys/19.1/v191/fluent/fluent19.1.0/cortex/lnamd64/cortex.19.1.0 -f fluent -g -i journal.jou (fluent "3ddp -pinfiniband  -host -r19.1.0 -t96 -mpi=ibmmpi -path/pdc/vol/ansys/19.1/v191/fluent -ssh")
/pdc/vol/ansys/19.1/v191/fluent/fluent19.1.0/bin/fluent -r19.1.0 3ddp -pinfiniband -host -t96 -mpi=ibmmpi -path/pdc/vol/ansys/19.1/v191/fluent -ssh -cx t02n15.pdc.kth.se:44540:38934
Starting /pdc/vol/ansys/19.1/v191/fluent/fluent19.1.0/lnamd64/3ddp_host/fluent.19.1.0 host -cx t02n15.pdc.kth.se:44540:38934 "(list (rpsetvar (QUOTE parallel/function) "fluent 3ddp -flux -node -r19.1.0 -t96 -pinfiniband -mpi=ibmmpi -ssh") (rpsetvar (QUOTE parallel/rhost) "") (rpsetvar (QUOTE parallel/ruser) "") (rpsetvar (QUOTE parallel/nprocs_string) "96") (rpsetvar (QUOTE parallel/auto-spawn?) #t) (rpsetvar (QUOTE parallel/trace-level) 0) (rpsetvar (QUOTE parallel/remote-shell) 1) (rpsetvar (QUOTE parallel/path) "/pdc/vol/ansys/19.1/v191/fluent") (rpsetvar (QUOTE parallel/hostsfile) "") )"

              Welcome to ANSYS Fluent Release 19.1

              Copyright 1987-2018 ANSYS, Inc. All Rights Reserved.
              Unauthorized use, distribution or duplication is prohibited.
              This product is subject to U.S. laws governing export and re-export.
              For full Legal Notice, see documentation.

Build Time: Apr 09 2018 13:46:05 EDT  Build Id: 10123  
 

     --------------------------------------------------------------
     This is an academic version of ANSYS FLUENT. Usage of this product
     license is limited to the terms and conditions specified in your ANSYS
     license form, additional terms section.
     --------------------------------------------------------------
Host spawning Node 0 on machine "t02n15.pdc.kth.se" (unix).
/pdc/vol/ansys/19.1/v191/fluent/fluent19.1.0/bin/fluent -r19.1.0 3ddp -flux -node -t96 -pinfiniband -mpi=ibmmpi -ssh -mport 193.10.157.116:193.10.157.116:44562:0
-- srun ibmmpi launch --
Starting /pdc/vol/ansys/19.1/v191/fluent/fluent19.1.0/multiport/mpi/lnamd64/ibmmpi/bin/mpirun -e MPI_IBV_NO_FORK_SAFE=1 -e MPI_USE_MALLOPT_MMAP_MAX=0 -prot -IBV -e MPI_HASIC_IBV=1 -srun -n 96 /pdc/vol/ansys/19.1/v191/fluent/fluent19.1.0/lnamd64/3ddp_node/fluent_mpi.19.1.0 node -mpiw ibmmpi -pic infiniband -mport 193.10.157.116:193.10.157.116:44562:0
Host 0 -- ip 193.10.157.116 -- ranks 0 - 23
Host 1 -- ip 193.10.157.120 -- ranks 24 - 47
Host 2 -- ip 193.10.157.121 -- ranks 48 - 71
Host 3 -- ip 193.10.157.122 -- ranks 72 - 95

 host | 0    1    2    3
======|=====================
    0 : SHM  IBV  IBV  IBV
    1 : IBV  SHM  IBV  IBV
    2 : IBV  IBV  SHM  IBV
    3 : IBV  IBV  IBV  SHM

 Prot -  All Intra-node communication is: SHM
 Prot -  All Inter-node communication is: IBV


--------------------------------------------------------------------------------------
ID      Hostname           Core   O.S.      PID          Vendor                      
--------------------------------------------------------------------------------------
n72-95  t02n21.pdc.kth.se  24/48  Linux-64  5400-5423    Intel(R) Xeon(R) E5-2690 v3 
n48-71  t02n20.pdc.kth.se  24/48  Linux-64  15961-15984  Intel(R) Xeon(R) E5-2690 v3 
n47     t02n19.pdc.kth.se  24/48  Linux-64  3917         Intel(R) Xeon(R) E5-2690 v3 
n46     t02n19.pdc.kth.se  23/48  Linux-64  3916         Intel(R) Xeon(R) E5-2690 v3 
n45     t02n19.pdc.kth.se  22/48  Linux-64  3915         Intel(R) Xeon(R) E5-2690 v3 
n44     t02n19.pdc.kth.se  21/48  Linux-64  3914         Intel(R) Xeon(R) E5-2690 v3 
n43     t02n19.pdc.kth.se  20/48  Linux-64  3913         Intel(R) Xeon(R) E5-2690 v3 
n42     t02n19.pdc.kth.se  19/48  Linux-64  3912         Intel(R) Xeon(R) E5-2690 v3 
n41     t02n19.pdc.kth.se  18/48  Linux-64  3911         Intel(R) Xeon(R) E5-2690 v3 
n40     t02n19.pdc.kth.se  17/48  Linux-64  3910         Intel(R) Xeon(R) E5-2690 v3 
n39     t02n19.pdc.kth.se  16/48  Linux-64  3909         Intel(R) Xeon(R) E5-2690 v3 
n38     t02n19.pdc.kth.se  15/48  Linux-64  3908         Intel(R) Xeon(R) E5-2690 v3 
n37     t02n19.pdc.kth.se  14/48  Linux-64  3907         Intel(R) Xeon(R) E5-2690 v3 
n36     t02n19.pdc.kth.se  13/48  Linux-64  3906         Intel(R) Xeon(R) E5-2690 v3 
n35     t02n19.pdc.kth.se  12/48  Linux-64  3905         Intel(R) Xeon(R) E5-2690 v3 
n34     t02n19.pdc.kth.se  11/48  Linux-64  3903         Intel(R) Xeon(R) E5-2690 v3 
n33     t02n19.pdc.kth.se  10/48  Linux-64  3902         Intel(R) Xeon(R) E5-2690 v3 
n32     t02n19.pdc.kth.se  9/48   Linux-64  3901         Intel(R) Xeon(R) E5-2690 v3 
n31     t02n19.pdc.kth.se  8/48   Linux-64  3900         Intel(R) Xeon(R) E5-2690 v3 
n30     t02n19.pdc.kth.se  7/48   Linux-64  3899         Intel(R) Xeon(R) E5-2690 v3 
--------------------------------------------------------------------------------------
ID      Hostname           Core   O.S.      PID          Vendor                      
--------------------------------------------------------------------------------------
n29     t02n19.pdc.kth.se  6/48   Linux-64  3898         Intel(R) Xeon(R) E5-2690 v3 
n28     t02n19.pdc.kth.se  5/48   Linux-64  3897         Intel(R) Xeon(R) E5-2690 v3 
n27     t02n19.pdc.kth.se  4/48   Linux-64  3896         Intel(R) Xeon(R) E5-2690 v3 
n26     t02n19.pdc.kth.se  3/48   Linux-64  3895         Intel(R) Xeon(R) E5-2690 v3 
n25     t02n19.pdc.kth.se  2/48   Linux-64  3894         Intel(R) Xeon(R) E5-2690 v3 
n24     t02n19.pdc.kth.se  1/48   Linux-64  3893         Intel(R) Xeon(R) E5-2690 v3 
n0-23   t02n15.pdc.kth.se  24/48  Linux-64  34992-35015  Intel(R) Xeon(R) E5-2690 v3 
host    t02n15.pdc.kth.se         Linux-64  34805        Intel(R) Xeon(R) E5-2690 v3 

MPI Option Selected: ibmmpi
Selected system interconnect: InfiniBand
--------------------------------------------------------------------------------------


Posting ANSYS Product Improvement Program startup data
Done.

Reading journal file journal.jou...

> ;
;
file/read-case OR-COR-unsteady.cas.gz

Multicore SMT processors detected. Processor affinity set!

Reading "\"| gunzip -c \\\"OR-COR-unsteady.cas.gz\\\"\""...

Buffering for file scan...



 9386898 mixed cells, zone 73, binary.
 3946867 mixed cells, zone 74, binary.
Warning: reading 4 partition grid onto 96 compute node machine;
         will auto partition.
 9386898 cell partition ids, zone 73, 4 partitions, binary.
Warning: reading 4 partition grid onto 96 compute node machine;
         will auto partition.
 3946867 cell partition ids, zone 74, 4 partitions, binary.
19350142 mixed interior faces, zone 244, binary.
 8081244 mixed interior faces, zone 245, binary.
     574 mixed wall faces, zone 77, binary.
     574 mixed wall faces, zone  2, binary.
     574 mixed wall faces, zone 78, binary.
     574 mixed wall faces, zone  3, binary.
     574 mixed wall faces, zone 79, binary.
     574 mixed wall faces, zone  4, binary.
     574 mixed wall faces, zone 80, binary.
     574 mixed wall faces, zone  5, binary.
     574 mixed wall faces, zone 81, binary.
     574 mixed wall faces, zone  6, binary.
     898 mixed wall faces, zone 82, binary.
     898 mixed wall faces, zone  7, binary.
     574 mixed wall faces, zone 83, binary.
     574 mixed wall faces, zone  8, binary.
     574 mixed wall faces, zone 84, binary.
     574 mixed wall faces, zone  9, binary.
     574 mixed wall faces, zone 85, binary.
     574 mixed wall faces, zone 10, binary.
     574 mixed wall faces, zone 86, binary.
     574 mixed wall faces, zone 11, binary.
     574 mixed wall faces, zone 87, binary.
     574 mixed wall faces, zone 12, binary.
     574 mixed wall faces, zone 88, binary.
     574 mixed wall faces, zone 13, binary.
     574 mixed wall faces, zone 89, binary.
     574 mixed wall faces, zone 14, binary.
     572 mixed wall faces, zone 90, binary.
     572 mixed wall faces, zone 15, binary.
     574 mixed wall faces, zone 91, binary.
     574 mixed wall faces, zone 16, binary.
     572 mixed wall faces, zone 92, binary.
     572 mixed wall faces, zone 17, binary.
     574 mixed wall faces, zone 93, binary.
     574 mixed wall faces, zone 18, binary.
     572 mixed wall faces, zone 94, binary.
     572 mixed wall faces, zone 19, binary.
     574 mixed wall faces, zone 95, binary.
     574 mixed wall faces, zone 20, binary.
     572 mixed wall faces, zone 96, binary.
     572 mixed wall faces, zone 21, binary.
     574 mixed wall faces, zone 97, binary.
     574 mixed wall faces, zone 22, binary.
     572 mixed wall faces, zone 98, binary.
     572 mixed wall faces, zone 23, binary.
     574 mixed wall faces, zone 99, binary.
     574 mixed wall faces, zone 24, binary.
     572 mixed wall faces, zone 100, binary.
     572 mixed wall faces, zone 25, binary.
     574 mixed wall faces, zone 101, binary.
     574 mixed wall faces, zone 26, binary.
     574 mixed wall faces, zone 102, binary.
     574 mixed wall faces, zone 27, binary.
     572 mixed wall faces, zone 103, binary.
     572 mixed wall faces, zone 28, binary.
     572 mixed wall faces, zone 104, binary.
     572 mixed wall faces, zone 29, binary.
     574 mixed wall faces, zone 105, binary.
     574 mixed wall faces, zone 30, binary.
     572 mixed wall faces, zone 106, binary.
     572 mixed wall faces, zone 31, binary.
     574 mixed wall faces, zone 107, binary.
     574 mixed wall faces, zone 32, binary.
     574 mixed wall faces, zone 108, binary.
     574 mixed wall faces, zone 33, binary.
     574 mixed wall faces, zone 109, binary.
     574 mixed wall faces, zone 34, binary.
     574 mixed wall faces, zone 110, binary.
     574 mixed wall faces, zone 35, binary.
     574 mixed wall faces, zone 111, binary.
     574 mixed wall faces, zone 36, binary.
     574 mixed wall faces, zone 112, binary.
     574 mixed wall faces, zone 37, binary.
     574 mixed wall faces, zone 113, binary.
     574 mixed wall faces, zone 38, binary.
     574 mixed wall faces, zone 114, binary.
     574 mixed wall faces, zone 39, binary.
     574 mixed wall faces, zone 115, binary.
     574 mixed wall faces, zone 40, binary.
     574 mixed wall faces, zone 116, binary.
     574 mixed wall faces, zone 41, binary.
     574 mixed wall faces, zone 117, binary.
     574 mixed wall faces, zone 42, binary.
     574 mixed wall faces, zone 118, binary.
     574 mixed wall faces, zone 43, binary.
     574 mixed wall faces, zone 119, binary.
     574 mixed wall faces, zone 44, binary.
     574 mixed wall faces, zone 120, binary.
     574 mixed wall faces, zone 45, binary.
     574 mixed wall faces, zone 121, binary.
     574 mixed wall faces, zone 46, binary.
     574 mixed wall faces, zone 122, binary.
     574 mixed wall faces, zone 47, binary.
     574 mixed wall faces, zone 123, binary.
     574 mixed wall faces, zone 48, binary.
     574 mixed wall faces, zone 124, binary.
     574 mixed wall faces, zone 49, binary.
     976 mixed wall faces, zone 125, binary.
     976 mixed wall faces, zone 50, binary.
     574 mixed wall faces, zone 126, binary.
     574 mixed wall faces, zone 51, binary.
   42971 triangular velocity-inlet faces, zone 127, binary.
    3750 triangular pressure-outlet faces, zone 128, binary.
    1734 triangular velocity-inlet faces, zone 129, binary.
    1204 triangular pressure-outlet faces, zone 130, binary.
  193965 triangular wall faces, zone 131, binary.
   98169 triangular wall faces, zone 132, binary.
    7945 triangular wall faces, zone 133, binary.
   37956 triangular wall faces, zone 134, binary.
    1826 triangular wall faces, zone 135, binary.
     916 triangular wall faces, zone 136, binary.
    6079 triangular wall faces, zone 137, binary.
     117 triangular wall faces, zone 138, binary.
     574 shadow face pairs, binary. 
     574 shadow face pairs, binary. 
     574 shadow face pairs, binary. 
     574 shadow face pairs, binary. 
     574 shadow face pairs, binary. 
     898 shadow face pairs, binary. 
     574 shadow face pairs, binary. 
     574 shadow face pairs, binary. 
     574 shadow face pairs, binary. 
     574 shadow face pairs, binary. 
     574 shadow face pairs, binary. 
     574 shadow face pairs, binary. 
     574 shadow face pairs, binary. 
     572 shadow face pairs, binary. 
     574 shadow face pairs, binary. 
     572 shadow face pairs, binary. 
     574 shadow face pairs, binary. 
     572 shadow face pairs, binary. 
     574 shadow face pairs, binary. 
     572 shadow face pairs, binary. 
     574 shadow face pairs, binary. 
     572 shadow face pairs, binary. 
     574 shadow face pairs, binary. 
     572 shadow face pairs, binary. 
     574 shadow face pairs, binary. 
     574 shadow face pairs, binary. 
     572 shadow face pairs, binary. 
     572 shadow face pairs, binary. 
     574 shadow face pairs, binary. 
     572 shadow face pairs, binary. 
     574 shadow face pairs, binary. 
     574 shadow face pairs, binary. 
     574 shadow face pairs, binary. 
     574 shadow face pairs, binary. 
     574 shadow face pairs, binary. 
     574 shadow face pairs, binary. 
     574 shadow face pairs, binary. 
     574 shadow face pairs, binary. 
     574 shadow face pairs, binary. 
     574 shadow face pairs, binary. 
     574 shadow face pairs, binary. 
     574 shadow face pairs, binary. 
     574 shadow face pairs, binary. 
     574 shadow face pairs, binary. 
     574 shadow face pairs, binary. 
     574 shadow face pairs, binary. 
     574 shadow face pairs, binary. 
     574 shadow face pairs, binary. 
     976 shadow face pairs, binary. 
     574 shadow face pairs, binary. 
 3001709 nodes, binary.
3001709 node flags, binary.
   80802 "cor-inlet-profile" point-profile points, x, y, z, u, v, w.
  348480 "or-inlet-profile" point-profile points, x, y, z, u, v, w.

Checking the existence of compiled "libudf" UDF library for current platform.
If needed will attempt auto-compilation...





Copied /cfs/klemming/scratch/c/congwang/Fluent/New/predoor/./ave.c to libudf/src
user.udf file is outdated. So, recreating the file for 3ddp_host ...
user.udf file is outdated. So, recreating the file for 3ddp_node ...


Working...
for d in lnamd64/[23]*; do \
  ( \
    cd $d; \
	rm -rf *.{c,h,cpp,hpp}; \
    for f in ../../src/*.{c,h,cpp,hpp} ../../src/makefile ../../src/user.udf; do \
      if [ -f $f -a ! -f `basename $f` ]; then \
        echo "# linking to" $f "in" $d; \
        ln -s $f .; \
      fi; \
    done; \
    echo ""; \
    echo "# building library in" $d; \
    if [ "" = "1" ]; then \
	echo "# using gcc64"; \
	make ARCHC=gcc64 -k>makelog 2>&1; \
    else \
	if [ "" = "1" ]; then \
		echo "# using gcc"; \
		make ARCHC=gcc -k>makelog 2>&1; \
	else \
		make -k>makelog 2>&1; \
	fi; \
    fi;\
    cat makelog; \
  ) \
done
# linking to ../../src/ave.c in lnamd64/3ddp_host

# building library in lnamd64/3ddp_host
make[1]: Entering directory `/cfs/klemming/scratch/c/congwang/Fluent/New/predoor/libudf/lnamd64/3ddp_host'
# Generating udf_names.c because of makefile ave.c
make[2]: Entering directory `/cfs/klemming/scratch/c/congwang/Fluent/New/predoor/libudf/lnamd64/3ddp_host'
make libudf.so "CFLAGS=-D_lnamd64 -D_GNU_SOURCE -fpic -shared -ansi -Wall -O -DPTR_RESTRICT=   " "LDFLAGS=-shared -lm"
make[3]: Entering directory `/cfs/klemming/scratch/c/congwang/Fluent/New/predoor/libudf/lnamd64/3ddp_host'
# Compiling udf_names.o because of 
cc -D_lnamd64 -D_GNU_SOURCE -fpic -shared -ansi -Wall -O -DPTR_RESTRICT=    -I/pdc/vol/ansys/19.1/v191/fluent/fluent19.1.0/`expr "\`pwd\`" : '.*/\(.*\)/[23].*'`/`basename "\`pwd\`"` -I/pdc/vol/ansys/19.1/v191/fluent/fluent19.1.0/src/main -I/pdc/vol/ansys/19.1/v191/fluent/fluent19.1.0/src/addon-wrapper -I/pdc/vol/ansys/19.1/v191/fluent/fluent19.1.0/src/io -I/pdc/vol/ansys/19.1/v191/fluent/fluent19.1.0/src/species -I/pdc/vol/ansys/19.1/v191/fluent/fluent19.1.0/src/pbns -I/pdc/vol/ansys/19.1/v191/fluent/fluent19.1.0/src/numerics -I/pdc/vol/ansys/19.1/v191/fluent/fluent19.1.0/src/sphysics -I/pdc/vol/ansys/19.1/v191/fluent/fluent19.1.0/src/storage -I/pdc/vol/ansys/19.1/v191/fluent/fluent19.1.0/src/mphase -I/pdc/vol/ansys/19.1/v191/fluent/fluent19.1.0/src/bc -I/pdc/vol/ansys/19.1/v191/fluent/fluent19.1.0/src/models -I/pdc/vol/ansys/19.1/v191/fluent/fluent19.1.0/src/material -I/pdc/vol/ansys/19.1/v191/fluent/fluent19.1.0/src/amg -I/pdc/vol/ansys/19.1/v191/fluent/fluent19.1.0/src/util -I/pdc/vol/ansys/19.1/v191/fluent/fluent19.1.0/src/mesh -I/pdc/vol/ansys/19.1/v191/fluent/fluent19.1.0/src/udf -I/pdc/vol/ansys/19.1/v191/fluent/fluent19.1.0/src/ht -I/pdc/vol/ansys/19.1/v191/fluent/fluent19.1.0/src/dx -I/pdc/vol/ansys/19.1/v191/fluent/fluent19.1.0/src/turbulence -I/pdc/vol/ansys/19.1/v191/fluent/fluent19.1.0/src/parallel -I/pdc/vol/ansys/19.1/v191/fluent/fluent19.1.0/src/etc -I/pdc/vol/ansys/19.1/v191/fluent/fluent19.1.0/src/ue -I/pdc/vol/ansys/19.1/v191/fluent/fluent19.1.0/src/dpm -I/pdc/vol/ansys/19.1/v191/fluent/fluent19.1.0/src/dbns -I/pdc/vol/ansys/19.1/v191/fluent/fluent19.1.0/cortex/src -I/pdc/vol/ansys/19.1/v191/fluent/fluent19.1.0/client/src -I/pdc/vol/ansys/19.1/v191/fluent/fluent19.1.0/tgrid/src -I/pdc/vol/ansys/19.1/v191/fluent/fluent19.1.0/multiport/src -I/pdc/vol/ansys/19.1/v191/fluent/fluent19.1.0/multiport/mpi_wrapper/include -I/pdc/vol/ansys/19.1/v191/fluent/fluent19.1.0/multiport/mpi_wrapper/src -I. -c udf_names.c
# Compiling ave.o because of ave.c
cc -D_lnamd64 -D_GNU_SOURCE -fpic -shared -ansi -Wall -O -DPTR_RESTRICT=     -I/pdc/vol/ansys/19.1/v191/fluent/fluent19.1.0/`expr "\`pwd\`" : '.*/\(.*\)/[23].*'`/`basename "\`pwd\`"` -I/pdc/vol/ansys/19.1/v191/fluent/fluent19.1.0/src/main -I/pdc/vol/ansys/19.1/v191/fluent/fluent19.1.0/src/addon-wrapper -I/pdc/vol/ansys/19.1/v191/fluent/fluent19.1.0/src/io -I/pdc/vol/ansys/19.1/v191/fluent/fluent19.1.0/src/species -I/pdc/vol/ansys/19.1/v191/fluent/fluent19.1.0/src/pbns -I/pdc/vol/ansys/19.1/v191/fluent/fluent19.1.0/src/numerics -I/pdc/vol/ansys/19.1/v191/fluent/fluent19.1.0/src/sphysics -I/pdc/vol/ansys/19.1/v191/fluent/fluent19.1.0/src/storage -I/pdc/vol/ansys/19.1/v191/fluent/fluent19.1.0/src/mphase -I/pdc/vol/ansys/19.1/v191/fluent/fluent19.1.0/src/bc -I/pdc/vol/ansys/19.1/v191/fluent/fluent19.1.0/src/models -I/pdc/vol/ansys/19.1/v191/fluent/fluent19.1.0/src/material -I/pdc/vol/ansys/19.1/v191/fluent/fluent19.1.0/src/amg -I/pdc/vol/ansys/19.1/v191/fluent/fluent19.1.0/src/util -I/pdc/vol/ansys/19.1/v191/fluent/fluent19.1.0/src/mesh -I/pdc/vol/ansys/19.1/v191/fluent/fluent19.1.0/src/udf -I/pdc/vol/ansys/19.1/v191/fluent/fluent19.1.0/src/ht -I/pdc/vol/ansys/19.1/v191/fluent/fluent19.1.0/src/dx -I/pdc/vol/ansys/19.1/v191/fluent/fluent19.1.0/src/turbulence -I/pdc/vol/ansys/19.1/v191/fluent/fluent19.1.0/src/parallel -I/pdc/vol/ansys/19.1/v191/fluent/fluent19.1.0/src/etc -I/pdc/vol/ansys/19.1/v191/fluent/fluent19.1.0/src/ue -I/pdc/vol/ansys/19.1/v191/fluent/fluent19.1.0/src/dpm -I/pdc/vol/ansys/19.1/v191/fluent/fluent19.1.0/src/dbns -I/pdc/vol/ansys/19.1/v191/fluent/fluent19.1.0/cortex/src -I/pdc/vol/ansys/19.1/v191/fluent/fluent19.1.0/client/src -I/pdc/vol/ansys/19.1/v191/fluent/fluent19.1.0/tgrid/src -I/pdc/vol/ansys/19.1/v191/fluent/fluent19.1.0/multiport/src -I/pdc/vol/ansys/19.1/v191/fluent/fluent19.1.0/multiport/mpi_wrapper/include -I/pdc/vol/ansys/19.1/v191/fluent/fluent19.1.0/multiport/mpi_wrapper/src -I. -c ave.c
ave.c: In function 'vol_ave_var':
ave.c:36:7: warning: unused variable 'c_vol' [-Wunused-variable]
  real c_vol = 0.0;
       ^
ave.c:35:10: warning: unused variable 'c_var' [-Wunused-variable]
     real c_var = 0.0;
          ^
ave.c:33:7: warning: unused variable 'c_x' [-Wunused-variable]
  real c_x[ND_ND] = {0.0,0.0,0.0}; 
       ^
ave.c:31:13: warning: variable 'domain' set but not used [-Wunused-but-set-variable]
     Domain *domain;
             ^
ave.c:30:10: warning: unused variable 't' [-Wunused-variable]
  Thread *t;
          ^
ave.c:29:10: warning: unused variable 'c' [-Wunused-variable]
   cell_t c;
          ^
ave.c:28:12: warning: unused variable 'f' [-Wunused-variable]
     face_t f;
            ^
# Linking libudf.so because of makefile user.udf udf_names.c udf_names.o ave.o
cc -shared -lm udf_names.o ave.o  -o libudf.so
make[3]: Leaving directory `/cfs/klemming/scratch/c/congwang/Fluent/New/predoor/libudf/lnamd64/3ddp_host'
make[2]: Leaving directory `/cfs/klemming/scratch/c/congwang/Fluent/New/predoor/libudf/lnamd64/3ddp_host'
make[1]: Leaving directory `/cfs/klemming/scratch/c/congwang/Fluent/New/predoor/libudf/lnamd64/3ddp_host'
# linking to ../../src/ave.c in lnamd64/3ddp_node

# building library in lnamd64/3ddp_node
make[1]: Entering directory `/cfs/klemming/scratch/c/congwang/Fluent/New/predoor/libudf/lnamd64/3ddp_node'
# Generating udf_names.c because of makefile ave.c
make[2]: Entering directory `/cfs/klemming/scratch/c/congwang/Fluent/New/predoor/libudf/lnamd64/3ddp_node'
make libudf.so "CFLAGS=-D_lnamd64 -D_GNU_SOURCE -fpic -shared -ansi -Wall -O -DPTR_RESTRICT=   " "LDFLAGS=-shared -lm"
make[3]: Entering directory `/cfs/klemming/scratch/c/congwang/Fluent/New/predoor/libudf/lnamd64/3ddp_node'
# Compiling udf_names.o because of 
cc -D_lnamd64 -D_GNU_SOURCE -fpic -shared -ansi -Wall -O -DPTR_RESTRICT=    -I/pdc/vol/ansys/19.1/v191/fluent/fluent19.1.0/`expr "\`pwd\`" : '.*/\(.*\)/[23].*'`/`basename "\`pwd\`"` -I/pdc/vol/ansys/19.1/v191/fluent/fluent19.1.0/src/main -I/pdc/vol/ansys/19.1/v191/fluent/fluent19.1.0/src/addon-wrapper -I/pdc/vol/ansys/19.1/v191/fluent/fluent19.1.0/src/io -I/pdc/vol/ansys/19.1/v191/fluent/fluent19.1.0/src/species -I/pdc/vol/ansys/19.1/v191/fluent/fluent19.1.0/src/pbns -I/pdc/vol/ansys/19.1/v191/fluent/fluent19.1.0/src/numerics -I/pdc/vol/ansys/19.1/v191/fluent/fluent19.1.0/src/sphysics -I/pdc/vol/ansys/19.1/v191/fluent/fluent19.1.0/src/storage -I/pdc/vol/ansys/19.1/v191/fluent/fluent19.1.0/src/mphase -I/pdc/vol/ansys/19.1/v191/fluent/fluent19.1.0/src/bc -I/pdc/vol/ansys/19.1/v191/fluent/fluent19.1.0/src/models -I/pdc/vol/ansys/19.1/v191/fluent/fluent19.1.0/src/material -I/pdc/vol/ansys/19.1/v191/fluent/fluent19.1.0/src/amg -I/pdc/vol/ansys/19.1/v191/fluent/fluent19.1.0/src/util -I/pdc/vol/ansys/19.1/v191/fluent/fluent19.1.0/src/mesh -I/pdc/vol/ansys/19.1/v191/fluent/fluent19.1.0/src/udf -I/pdc/vol/ansys/19.1/v191/fluent/fluent19.1.0/src/ht -I/pdc/vol/ansys/19.1/v191/fluent/fluent19.1.0/src/dx -I/pdc/vol/a
You can also see the 'log'-file in 
the working directory for this compilation history

Done.
nsys/19.1/v191/fluent/fluent19.1.0/src/turbulence -I/pdc/vol/ansys/19.1/v191/fluent/fluent19.1.0/src/parallel -I/pdc/vol/ansys/19.1/v191/fluent/fluent19.1.0/src/etc -I/pdc/vol/ansys/19.1/v191/fluent/fluent19.1.0/src/ue -I/pdc/vol/ansys/19.1/v191/fluent/fluent19.1.0/src/dpm -I/pdc/vol/ansys/19.1/v191/fluent/fluent19.1.0/src/dbns -I/pdc/vol/ansys/19.1/v191/fluent/fluent19.1.0/cortex/src -I/pdc/vol/ansys/19.1/v191/fluent/fluent19.1.0/client/src -I/pdc/vol/ansys/19.1/v191/fluent/fluent19.1.0/tgrid/src -I/pdc/vol/ansys/19.1/v191/fluent/fluent19.1.0/multiport/src -I/pdc/vol/ansys/19.1/v191/fluent/fluent19.1.0/multiport/mpi_wrapper/include -I/pdc/vol/ansys/19.1/v191/fluent/fluent19.1.0/multiport/mpi_wrapper/src -I. -c udf_names.c
# Compiling ave.o because of ave.c
cc -D_lnamd64 -D_GNU_SOURCE -fpic -shared -ansi -Wall -O -DPTR_RESTRICT=     -I/pdc/vol/ansys/19.1/v191/fluent/fluent19.1.0/`expr "\`pwd\`" : '.*/\(.*\)/[23].*'`/`basename "\`pwd\`"` -I/pdc/vol/ansys/19.1/v191/fluent/fluent19.1.0/src/main -I/pdc/vol/ansys/19.1/v191/fluent/fluent19.1.0/src/addon-wrapper -I/pdc/vol/ansys/19.1/v191/fluent/fluent19.1.0/src/io -I/pdc/vol/ansys/19.1/v191/fluent/fluent19.1.0/src/species -I/pdc/vol/ansys/19.1/v191/fluent/fluent19.1.0/src/pbns -I/pdc/vol/ansys/19.1/v191/fluent/fluent19.1.0/src/numerics -I/pdc/vol/ansys/19.1/v191/fluent/fluent19.1.0/src/sphysics -I/pdc/vol/ansys/19.1/v191/fluent/fluent19.1.0/src/storage -I/pdc/vol/ansys/19.1/v191/fluent/fluent19.1.0/src/mphase -I/pdc/vol/ansys/19.1/v191/fluent/fluent19.1.0/src/bc -I/pdc/vol/ansys/19.1/v191/fluent/fluent19.1.0/src/models -I/pdc/vol/ansys/19.1/v191/fluent/fluent19.1.0/src/material -I/pdc/vol/ansys/19.1/v191/fluent/fluent19.1.0/src/amg -I/pdc/vol/ansys/19.1/v191/fluent/fluent19.1.0/src/util -I/pdc/vol/ansys/19.1/v191/fluent/fluent19.1.0/src/mesh -I/pdc/vol/ansys/19.1/v191/fluent/fluent19.1.0/src/udf -I/pdc/vol/ansys/19.1/v191/fluent/fluent19.1.0/src/ht -I/pdc/vol/ansys/19.1/v191/fluent/fluent19.1.0/src/dx -I/pdc/vol/ansys/19.1/v191/fluent/fluent19.1.0/src/turbulence -I/pdc/vol/ansys/19.1/v191/fluent/fluent19.1.0/src/parallel -I/pdc/vol/ansys/19.1/v191/fluent/fluent19.1.0/src/etc -I/pdc/vol/ansys/19.1/v191/fluent/fluent19.1.0/src/ue -I/pdc/vol/ansys/19.1/v191/fluent/fluent19.1.0/src/dpm -I/pdc/vol/ansys/19.1/v191/fluent/fluent19.1.0/src/dbns -I/pdc/vol/ansys/19.1/v191/fluent/fluent19.1.0/cortex/src -I/pdc/vol/ansys/19.1/v191/fluent/fluent19.1.0/client/src -I/pdc/vol/ansys/19.1/v191/fluent/fluent19.1.0/tgrid/src -I/pdc/vol/ansys/19.1/v191/fluent/fluent19.1.0/multiport/src -I/pdc/vol/ansys/19.1/v191/fluent/fluent19.1.0/multiport/mpi_wrapper/include -I/pdc/vol/ansys/19.1/v191/fluent/fluent19.1.0/multiport/mpi_wrapper/src -I. -c ave.c
ave.c: In function 'vol_ave_var':
ave.c:28:12: warning: unused variable 'f' [-Wunused-variable]
     face_t f;
            ^
# Linking libudf.so because of makefile user.udf udf_names.c udf_names.o ave.o
cc -shared -lm udf_names.o ave.o  -o libudf.so
make[3]: Leaving directory `/cfs/klemming/scratch/c/congwang/Fluent/New/predoor/libudf/lnamd64/3ddp_node'
make[2]: Leaving directory `/cfs/klemming/scratch/c/congwang/Fluent/New/predoor/libudf/lnamd64/3ddp_node'
make[1]: Leaving directory `/cfs/klemming/scratch/c/congwang/Fluent/New/predoor/libudf/lnamd64/3ddp_node'
Auto-compilation checking of "libudf"...Done

Opening library "/cfs/klemming/scratch/c/congwang/Fluent/New/predoor/libudf"...
Library "/cfs/klemming/scratch/c/congwang/Fluent/New/predoor/libudf/lnamd64/3ddp_host/libudf.so" opened
Opening library "/cfs/klemming/scratch/c/congwang/Fluent/New/predoor/libudf"...
Library "/cfs/klemming/scratch/c/congwang/Fluent/New/predoor/libudf/lnamd64/3ddp_node/libudf.so" opened
	vol_ave_var
Done.

Opening library "/cfs/klemming/scratch/c/congwang/Fluent/New/predoor/libudf"...
Library "/cfs/klemming/scratch/c/congwang/Fluent/New/predoor/libudf/lnamd64/3ddp_node/libudf.so" opened
Opening library "/cfs/klemming/scratch/c/congwang/Fluent/New/predoor/libudf"...
Library "/cfs/klemming/scratch/c/congwang/Fluent/New/predoor/libudf/lnamd64/3ddp_node/libudf.so" opened
Opening library "/cfs/klemming/scratch/c/congwang/Fluent/New/predoor/libudf"...
Library "/cfs/klemming/scratch/c/congwang/Fluent/New/predoor/libudf/lnamd64/3ddp_node/libudf.so" opened
Opening library "/cfs/klemming/scratch/c/congwang/Fluent/New/predoor/libudf"...
Library "/cfs/klemming/scratch/c/congwang/Fluent/New/predoor/libudf/lnamd64/3ddp_node/libudf.so" opened
Opening library "/cfs/klemming/scratch/c/congwang/Fluent/New/predoor/libudf"...
Library "/cfs/klemming/scratch/c/congwang/Fluent/New/predoor/libudf/lnamd64/3ddp_node/libudf.so" opened
Opening library "/cfs/klemming/scratch/c/congwang/Fluent/New/predoor/libudf"...
Library "/cfs/klemming/scratch/c/congwang/Fluent/New/predoor/libudf/lnamd64/3ddp_node/libudf.so" opened
Opening library "/cfs/klemming/scratch/c/congwang/Fluent/New/predoor/libudf"...
Library "/cfs/klemming/scratch/c/congwang/Fluent/New/predoor/libudf/lnamd64/3ddp_node/libudf.so" opened
Opening library "/cfs/klemming/scratch/c/congwang/Fluent/New/predoor/libudf"...
Library "/cfs/klemming/scratch/c/congwang/Fluent/New/predoor/libudf/lnamd64/3ddp_node/libudf.so" opened
Opening library "/cfs/klemming/scratch/c/congwang/Fluent/New/predoor/libudf"...
Library "/cfs/klemming/scratch/c/congwang/Fluent/New/predoor/libudf/lnamd64/3ddp_node/libudf.so" opened
Opening library "/cfs/klemming/scratch/c/congwang/Fluent/New/predoor/libudf"...
Library "/cfs/klemming/scratch/c/congwang/Fluent/New/predoor/libudf/lnamd64/3ddp_node/libudf.so" opened
Opening library "/cfs/klemming/scratch/c/congwang/Fluent/New/predoor/libudf"...
Library "/cfs/klemming/scratch/c/congwang/Fluent/New/predoor/libudf/lnamd64/3ddp_node/libudf.so" opened
Opening library "/cfs/klemming/scratch/c/congwang/Fluent/New/predoor/libudf"...
Library "/cfs/klemming/scratch/c/congwang/Fluent/New/predoor/libudf/lnamd64/3ddp_node/libudf.so" opened
Opening library "/cfs/klemming/scratch/c/congwang/Fluent/New/predoor/libudf"...
Library "/cfs/klemming/scratch/c/congwang/Fluent/New/predoor/libudf/lnamd64/3ddp_node/libudf.so" opened
Opening library "/cfs/klemming/scratch/c/congwang/Fluent/New/predoor/libudf"...
Library "/cfs/klemming/scratch/c/congwang/Fluent/New/predoor/libudf/lnamd64/3ddp_node/libudf.so" opened
Opening library "/cfs/klemming/scratch/c/congwang/Fluent/New/predoor/libudf"...
Library "/cfs/klemming/scratch/c/congwang/Fluent/New/predoor/libudf/lnamd64/3ddp_node/libudf.so" opened
Opening library "/cfs/klemming/scratch/c/congwang/Fluent/New/predoor/libudf"...
Library "/cfs/klemming/scratch/c/congwang/Fluent/New/predoor/libudf/lnamd64/3ddp_node/libudf.so" opened
Opening library "/cfs/klemming/scratch/c/congwang/Fluent/New/predoor/libudf"...
Library "/cfs/klemming/scratch/c/congwang/Fluent/New/predoor/libudf/lnamd64/3ddp_node/libudf.so" opened
Opening library "/cfs/klemming/scratch/c/congwang/Fluent/New/predoor/libudf"...
Library "/cfs/klemming/scratch/c/congwang/Fluent/New/predoor/libudf/lnamd64/3ddp_node/libudf.so" opened
Opening library "/cfs/klemming/scratch/c/congwang/Fluent/New/predoor/libudf"...
Library "/cfs/klemming/scratch/c/congwang/Fluent/New/predoor/libudf/lnamd64/3ddp_node/libudf.so" opened
Opening library "/cfs/klemming/scratch/c/congwang/Fluent/New/predoor/libudf"...
Library "/cfs/klemming/scratch/c/congwang/Fluent/New/predoor/libudf/lnamd64/3ddp_node/libudf.so" opened
Opening library "/cfs/klemming/scratch/c/congwang/Fluent/New/predoor/libudf"...
Library "/cfs/klemming/scratch/c/congwang/Fluent/New/predoor/libudf/lnamd64/3ddp_node/libudf.so" opened
Opening library "/cfs/klemming/scratch/c/congwang/Fluent/New/predoor/libudf"...
Library "/cfs/klemming/scratch/c/congwang/Fluent/New/predoor/libudf/lnamd64/3ddp_node/libudf.so" opened
Opening library "/cfs/klemming/scratch/c/congwang/Fluent/New/predoor/libudf"...
Library "/cfs/klemming/scratch/c/congwang/Fluent/New/predoor/libudf/lnamd64/3ddp_node/libudf.so" opened
Opening library "/cfs/klemming/scratch/c/congwang/Fluent/New/predoor/libudf"...
Library "/cfs/klemming/scratch/c/congwang/Fluent/New/predoor/libudf/lnamd64/3ddp_node/libudf.so" opened
Opening library "/cfs/klemming/scratch/c/congwang/Fluent/New/predoor/libudf"...
Library "/cfs/klemming/scratch/c/congwang/Fluent/New/predoor/libudf/lnamd64/3ddp_node/libudf.so" opened
Opening library "/cfs/klemming/scratch/c/congwang/Fluent/New/predoor/libudf"...
Library "/cfs/klemming/scratch/c/congwang/Fluent/New/predoor/libudf/lnamd64/3ddp_node/libudf.so" opened
Opening library "/cfs/klemming/scratch/c/congwang/Fluent/New/predoor/libudf"...
Library "/cfs/klemming/scratch/c/congwang/Fluent/New/predoor/libudf/lnamd64/3ddp_node/libudf.so" opened
Opening library "/cfs/klemming/scratch/c/congwang/Fluent/New/predoor/libudf"...
Library "/cfs/klemming/scratch/c/congwang/Fluent/New/predoor/libudf/lnamd64/3ddp_node/libudf.so" opened
Opening library "/cfs/klemming/scratch/c/congwang/Fluent/New/predoor/libudf"...
Library "/cfs/klemming/scratch/c/congwang/Fluent/New/predoor/libudf/lnamd64/3ddp_node/libudf.so" opened
Opening library "/cfs/klemming/scratch/c/congwang/Fluent/New/predoor/libudf"...
Library "/cfs/klemming/scratch/c/congwang/Fluent/New/predoor/libudf/lnamd64/3ddp_node/libudf.so" opened
Opening library "/cfs/klemming/scratch/c/congwang/Fluent/New/predoor/libudf"...
Library "/cfs/klemming/scratch/c/congwang/Fluent/New/predoor/libudf/lnamd64/3ddp_node/libudf.so" opened
Opening library "/cfs/klemming/scratch/c/congwang/Fluent/New/predoor/libudf"...
Library "/cfs/klemming/scratch/c/congwang/Fluent/New/predoor/libudf/lnamd64/3ddp_node/libudf.so" opened
Opening library "/cfs/klemming/scratch/c/congwang/Fluent/New/predoor/libudf"...
Library "/cfs/klemming/scratch/c/congwang/Fluent/New/predoor/libudf/lnamd64/3ddp_node/libudf.so" opened
Opening library "/cfs/klemming/scratch/c/congwang/Fluent/New/predoor/libudf"...
Library "/cfs/klemming/scratch/c/congwang/Fluent/New/predoor/libudf/lnamd64/3ddp_node/libudf.so" opened
Opening library "/cfs/klemming/scratch/c/congwang/Fluent/New/predoor/libudf"...
Library "/cfs/klemming/scratch/c/congwang/Fluent/New/predoor/libudf/lnamd64/3ddp_node/libudf.so" opened
Opening library "/cfs/klemming/scratch/c/congwang/Fluent/New/predoor/libudf"...
Library "/cfs/klemming/scratch/c/congwang/Fluent/New/predoor/libudf/lnamd64/3ddp_node/libudf.so" opened
Opening library "/cfs/klemming/scratch/c/congwang/Fluent/New/predoor/libudf"...
Library "/cfs/klemming/scratch/c/congwang/Fluent/New/predoor/libudf/lnamd64/3ddp_node/libudf.so" opened
Opening library "/cfs/klemming/scratch/c/congwang/Fluent/New/predoor/libudf"...
Library "/cfs/klemming/scratch/c/congwang/Fluent/New/predoor/libudf/lnamd64/3ddp_node/libudf.so" opened
Opening library "/cfs/klemming/scratch/c/congwang/Fluent/New/predoor/libudf"...
Library "/cfs/klemming/scratch/c/congwang/Fluent/New/predoor/libudf/lnamd64/3ddp_node/libudf.so" opened
Opening library "/cfs/klemming/scratch/c/congwang/Fluent/New/predoor/libudf"...
Library "/cfs/klemming/scratch/c/congwang/Fluent/New/predoor/libudf/lnamd64/3ddp_node/libudf.so" opened
Opening library "/cfs/klemming/scratch/c/congwang/Fluent/New/predoor/libudf"...
Library "/cfs/klemming/scratch/c/congwang/Fluent/New/predoor/libudf/lnamd64/3ddp_node/libudf.so" opened
Opening library "/cfs/klemming/scratch/c/congwang/Fluent/New/predoor/libudf"...
Library "/cfs/klemming/scratch/c/congwang/Fluent/New/predoor/libudf/lnamd64/3ddp_node/libudf.so" opened
Opening library "/cfs/klemming/scratch/c/congwang/Fluent/New/predoor/libudf"...
Library "/cfs/klemming/scratch/c/congwang/Fluent/New/predoor/libudf/lnamd64/3ddp_node/libudf.so" opened
Opening library "/cfs/klemming/scratch/c/congwang/Fluent/New/predoor/libudf"...
Library "/cfs/klemming/scratch/c/congwang/Fluent/New/predoor/libudf/lnamd64/3ddp_node/libudf.so" opened
Opening library "/cfs/klemming/scratch/c/congwang/Fluent/New/predoor/libudf"...
Library "/cfs/klemming/scratch/c/congwang/Fluent/New/predoor/libudf/lnamd64/3ddp_node/libudf.so" opened
Opening library "/cfs/klemming/scratch/c/congwang/Fluent/New/predoor/libudf"...
Library "/cfs/klemming/scratch/c/congwang/Fluent/New/predoor/libudf/lnamd64/3ddp_node/libudf.so" opened
Opening library "/cfs/klemming/scratch/c/congwang/Fluent/New/predoor/libudf"...
Library "/cfs/klemming/scratch/c/congwang/Fluent/New/predoor/libudf/lnamd64/3ddp_node/libudf.so" opened
Opening library "/cfs/klemming/scratch/c/congwang/Fluent/New/predoor/libudf"...
Library "/cfs/klemming/scratch/c/congwang/Fluent/New/predoor/libudf/lnamd64/3ddp_node/libudf.so" opened
Opening library "/cfs/klemming/scratch/c/congwang/Fluent/New/predoor/libudf"...
Library "/cfs/klemming/scratch/c/congwang/Fluent/New/predoor/libudf/lnamd64/3ddp_node/libudf.so" opened
Opening library "/cfs/klemming/scratch/c/congwang/Fluent/New/predoor/libudf"...
Library "/cfs/klemming/scratch/c/congwang/Fluent/New/predoor/libudf/lnamd64/3ddp_node/libudf.so" opened
Opening library "/cfs/klemming/scratch/c/congwang/Fluent/New/predoor/libudf"...
Library "/cfs/klemming/scratch/c/congwang/Fluent/New/predoor/libudf/lnamd64/3ddp_node/libudf.so" opened
Opening library "/cfs/klemming/scratch/c/congwang/Fluent/New/predoor/libudf"...
Library "/cfs/klemming/scratch/c/congwang/Fluent/New/predoor/libudf/lnamd64/3ddp_node/libudf.so" opened
Opening library "/cfs/klemming/scratch/c/congwang/Fluent/New/predoor/libudf"...
Library "/cfs/klemming/scratch/c/congwang/Fluent/New/predoor/libudf/lnamd64/3ddp_node/libudf.so" opened
Opening library "/cfs/klemming/scratch/c/congwang/Fluent/New/predoor/libudf"...
Library "/cfs/klemming/scratch/c/congwang/Fluent/New/predoor/libudf/lnamd64/3ddp_node/libudf.so" opened
Opening library "/cfs/klemming/scratch/c/congwang/Fluent/New/predoor/libudf"...
Library "/cfs/klemming/scratch/c/congwang/Fluent/New/predoor/libudf/lnamd64/3ddp_node/libudf.so" opened
Opening library "/cfs/klemming/scratch/c/congwang/Fluent/New/predoor/libudf"...
Library "/cfs/klemming/scratch/c/congwang/Fluent/New/predoor/libudf/lnamd64/3ddp_node/libudf.so" opened
Opening library "/cfs/klemming/scratch/c/congwang/Fluent/New/predoor/libudf"...
Library "/cfs/klemming/scratch/c/congwang/Fluent/New/predoor/libudf/lnamd64/3ddp_node/libudf.so" opened
Opening library "/cfs/klemming/scratch/c/congwang/Fluent/New/predoor/libudf"...
Library "/cfs/klemming/scratch/c/congwang/Fluent/New/predoor/libudf/lnamd64/3ddp_node/libudf.so" opened
Opening library "/cfs/klemming/scratch/c/congwang/Fluent/New/predoor/libudf"...
Library "/cfs/klemming/scratch/c/congwang/Fluent/New/predoor/libudf/lnamd64/3ddp_node/libudf.so" opened
Opening library "/cfs/klemming/scratch/c/congwang/Fluent/New/predoor/libudf"...
Library "/cfs/klemming/scratch/c/congwang/Fluent/New/predoor/libudf/lnamd64/3ddp_node/libudf.so" opened
Opening library "/cfs/klemming/scratch/c/congwang/Fluent/New/predoor/libudf"...
Library "/cfs/klemming/scratch/c/congwang/Fluent/New/predoor/libudf/lnamd64/3ddp_node/libudf.so" opened
Opening library "/cfs/klemming/scratch/c/congwang/Fluent/New/predoor/libudf"...
Library "/cfs/klemming/scratch/c/congwang/Fluent/New/predoor/libudf/lnamd64/3ddp_node/libudf.so" opened
Opening library "/cfs/klemming/scratch/c/congwang/Fluent/New/predoor/libudf"...
Library "/cfs/klemming/scratch/c/congwang/Fluent/New/predoor/libudf/lnamd64/3ddp_node/libudf.so" opened
Opening library "/cfs/klemming/scratch/c/congwang/Fluent/New/predoor/libudf"...
Library "/cfs/klemming/scratch/c/congwang/Fluent/New/predoor/libudf/lnamd64/3ddp_node/libudf.so" opened
Opening library "/cfs/klemming/scratch/c/congwang/Fluent/New/predoor/libudf"...
Library "/cfs/klemming/scratch/c/congwang/Fluent/New/predoor/libudf/lnamd64/3ddp_node/libudf.so" opened
Opening library "/cfs/klemming/scratch/c/congwang/Fluent/New/predoor/libudf"...
Library "/cfs/klemming/scratch/c/congwang/Fluent/New/predoor/libudf/lnamd64/3ddp_node/libudf.so" opened
Opening library "/cfs/klemming/scratch/c/congwang/Fluent/New/predoor/libudf"...
Library "/cfs/klemming/scratch/c/congwang/Fluent/New/predoor/libudf/lnamd64/3ddp_node/libudf.so" opened
Opening library "/cfs/klemming/scratch/c/congwang/Fluent/New/predoor/libudf"...
Library "/cfs/klemming/scratch/c/congwang/Fluent/New/predoor/libudf/lnamd64/3ddp_node/libudf.so" opened
Opening library "/cfs/klemming/scratch/c/congwang/Fluent/New/predoor/libudf"...
Library "/cfs/klemming/scratch/c/congwang/Fluent/New/predoor/libudf/lnamd64/3ddp_node/libudf.so" opened
Opening library "/cfs/klemming/scratch/c/congwang/Fluent/New/predoor/libudf"...
Library "/cfs/klemming/scratch/c/congwang/Fluent/New/predoor/libudf/lnamd64/3ddp_node/libudf.so" opened
Opening library "/cfs/klemming/scratch/c/congwang/Fluent/New/predoor/libudf"...
Library "/cfs/klemming/scratch/c/congwang/Fluent/New/predoor/libudf/lnamd64/3ddp_node/libudf.so" opened
Opening library "/cfs/klemming/scratch/c/congwang/Fluent/New/predoor/libudf"...
Library "/cfs/klemming/scratch/c/congwang/Fluent/New/predoor/libudf/lnamd64/3ddp_node/libudf.so" opened
Opening library "/cfs/klemming/scratch/c/congwang/Fluent/New/predoor/libudf"...
Library "/cfs/klemming/scratch/c/congwang/Fluent/New/predoor/libudf/lnamd64/3ddp_node/libudf.so" opened
Opening library "/cfs/klemming/scratch/c/congwang/Fluent/New/predoor/libudf"...
Library "/cfs/klemming/scratch/c/congwang/Fluent/New/predoor/libudf/lnamd64/3ddp_node/libudf.so" opened
Opening library "/cfs/klemming/scratch/c/congwang/Fluent/New/predoor/libudf"...
Library "/cfs/klemming/scratch/c/congwang/Fluent/New/predoor/libudf/lnamd64/3ddp_node/libudf.so" opened
Opening library "/cfs/klemming/scratch/c/congwang/Fluent/New/predoor/libudf"...
Library "/cfs/klemming/scratch/c/congwang/Fluent/New/predoor/libudf/lnamd64/3ddp_node/libudf.so" opened
Opening library "/cfs/klemming/scratch/c/congwang/Fluent/New/predoor/libudf"...
Library "/cfs/klemming/scratch/c/congwang/Fluent/New/predoor/libudf/lnamd64/3ddp_node/libudf.so" opened
Opening library "/cfs/klemming/scratch/c/congwang/Fluent/New/predoor/libudf"...
Library "/cfs/klemming/scratch/c/congwang/Fluent/New/predoor/libudf/lnamd64/3ddp_node/libudf.so" opened
Opening library "/cfs/klemming/scratch/c/congwang/Fluent/New/predoor/libudf"...
Library "/cfs/klemming/scratch/c/congwang/Fluent/New/predoor/libudf/lnamd64/3ddp_node/libudf.so" opened
Opening library "/cfs/klemming/scratch/c/congwang/Fluent/New/predoor/libudf"...
Library "/cfs/klemming/scratch/c/congwang/Fluent/New/predoor/libudf/lnamd64/3ddp_node/libudf.so" opened
Opening library "/cfs/klemming/scratch/c/congwang/Fluent/New/predoor/libudf"...
Library "/cfs/klemming/scratch/c/congwang/Fluent/New/predoor/libudf/lnamd64/3ddp_node/libudf.so" opened
Opening library "/cfs/klemming/scratch/c/congwang/Fluent/New/predoor/libudf"...
Library "/cfs/klemming/scratch/c/congwang/Fluent/New/predoor/libudf/lnamd64/3ddp_node/libudf.so" opened
Opening library "/cfs/klemming/scratch/c/congwang/Fluent/New/predoor/libudf"...
Library "/cfs/klemming/scratch/c/congwang/Fluent/New/predoor/libudf/lnamd64/3ddp_node/libudf.so" opened
Opening library "/cfs/klemming/scratch/c/congwang/Fluent/New/predoor/libudf"...
Library "/cfs/klemming/scratch/c/congwang/Fluent/New/predoor/libudf/lnamd64/3ddp_node/libudf.so" opened
Opening library "/cfs/klemming/scratch/c/congwang/Fluent/New/predoor/libudf"...
Library "/cfs/klemming/scratch/c/congwang/Fluent/New/predoor/libudf/lnamd64/3ddp_node/libudf.so" opened
Opening library "/cfs/klemming/scratch/c/congwang/Fluent/New/predoor/libudf"...
Library "/cfs/klemming/scratch/c/congwang/Fluent/New/predoor/libudf/lnamd64/3ddp_node/libudf.so" opened
Opening library "/cfs/klemming/scratch/c/congwang/Fluent/New/predoor/libudf"...
Library "/cfs/klemming/scratch/c/congwang/Fluent/New/predoor/libudf/lnamd64/3ddp_node/libudf.so" opened
Opening library "/cfs/klemming/scratch/c/congwang/Fluent/New/predoor/libudf"...
Library "/cfs/klemming/scratch/c/congwang/Fluent/New/predoor/libudf/lnamd64/3ddp_node/libudf.so" opened
Opening library "/cfs/klemming/scratch/c/congwang/Fluent/New/predoor/libudf"...
Library "/cfs/klemming/scratch/c/congwang/Fluent/New/predoor/libudf/lnamd64/3ddp_node/libudf.so" opened
Opening library "/cfs/klemming/scratch/c/congwang/Fluent/New/predoor/libudf"...
Library "/cfs/klemming/scratch/c/congwang/Fluent/New/predoor/libudf/lnamd64/3ddp_node/libudf.so" opened
Opening library "/cfs/klemming/scratch/c/congwang/Fluent/New/predoor/libudf"...
Library "/cfs/klemming/scratch/c/congwang/Fluent/New/predoor/libudf/lnamd64/3ddp_node/libudf.so" opened
Opening library "/cfs/klemming/scratch/c/congwang/Fluent/New/predoor/libudf"...
Library "/cfs/klemming/scratch/c/congwang/Fluent/New/predoor/libudf/lnamd64/3ddp_node/libudf.so" opened
Opening library "/cfs/klemming/scratch/c/congwang/Fluent/New/predoor/libudf"...
Library "/cfs/klemming/scratch/c/congwang/Fluent/New/predoor/libudf/lnamd64/3ddp_node/libudf.so" opened
Opening library "/cfs/klemming/scratch/c/congwang/Fluent/New/predoor/libudf"...
Library "/cfs/klemming/scratch/c/congwang/Fluent/New/predoor/libudf/lnamd64/3ddp_node/libudf.so" opened
Opening library "/cfs/klemming/scratch/c/congwang/Fluent/New/predoor/libudf"...
Library "/cfs/klemming/scratch/c/congwang/Fluent/New/predoor/libudf/lnamd64/3ddp_node/libudf.so" opened
Building...
     mesh
	auto partitioning mesh by Metis (fast),
	distributing mesh
		pairs..................................................,
		parts..................................................,
		faces..................................................,
		nodes..................................................,
		shadow nodes..................................................,
		cells..................................................,
        inter-node communication reduction using architecture-aware remapping: 77%
        bandwidth reduction using Reverse Cuthill-McKee: 140133/2911 = 48.1391
     materials,
     interface,
     domains,
	mixture
     zones,
	or_equip
	or_lamp_heat
	or_lamp_wall
	or_persons
	or_table
	cor_wall
	or_wall
	cor_outlet
	cor_inlet
	or_inlet
	interior-cor
	interior-or
	xdoor-d01
	xdoor-d01-shadow
	xdoor-d02
	xdoor-d02-shadow
	xdoor-d03
	xdoor-d03-shadow
	xdoor-d04
	xdoor-d04-shadow
	xdoor-d05
	xdoor-d05-shadow
	xdoor-d06
	xdoor-d06-shadow
	xdoor-d07
	xdoor-d07-shadow
	xdoor-d08
	xdoor-d08-shadow
	xdoor-d09
	xdoor-d09-shadow
	xdoor-d10
	xdoor-d10-shadow
	xdoor-d11
	xdoor-d11-shadow
	xdoor-d12
	xdoor-d12-shadow
	xdoor-d13
	xdoor-d13-shadow
	xdoor-d14
	xdoor-d14-shadow
	xdoor-d15
	xdoor-d15-shadow
	xdoor-d16
	xdoor-d16-shadow
	xdoor-d17
	xdoor-d17-shadow
	xdoor-d18
	xdoor-d18-shadow
	xdoor-d19
	xdoor-d19-shadow
	xdoor-d20
	xdoor-d20-shadow
	xdoor-d21
	xdoor-d21-shadow
	xdoor-d22
	xdoor-d22-shadow
	xdoor-d23
	xdoor-d23-shadow
	xdoor-d24
	xdoor-d24-shadow
	xdoor-d25
	xdoor-d25-shadow
	xdoor-d26
	xdoor-d26-shadow
	xdoor-d27
	xdoor-d27-shadow
	xdoor-d28
	xdoor-d28-shadow
	xdoor-d29
	xdoor-d29-shadow
	xdoor-d30
	xdoor-d30-shadow
	xdoor-d31
	xdoor-d31-shadow
	xdoor-d32
	xdoor-d32-shadow
	xdoor-d33
	xdoor-d33-shadow
	xdoor-d34
	xdoor-d34-shadow
	xdoor-d35
	xdoor-d35-shadow
	xdoor-d36
	xdoor-d36-shadow
	xdoor-d37
	xdoor-d37-shadow
	xdoor-d38
	xdoor-d38-shadow
	xdoor-d39
	xdoor-d39-shadow
	xdoor-d40
	xdoor-d40-shadow
	xdoor-d41
	xdoor-d41-shadow
	xdoor-d42
	xdoor-d42-shadow
	xdoor-d43
	xdoor-d43-shadow
	xdoor-d44
	xdoor-d44-shadow
	xdoor-d45
	xdoor-d45-shadow
	xdoor-d46
	xdoor-d46-shadow
	xdoor-d47
	xdoor-d47-shadow
	xdoor-d48
	xdoor-d48-shadow
	xdoor-d49
	xdoor-d49-shadow
	xdoor-d50
	xdoor-d50-shadow
	or_outlet
	sampler
	cor
	or
Skipping variable seco-breakup-madabhushi-c0 for injection injection-1
Skipping variable seco-breakup-madabhushi-ligament-factor for injection injection-1
Skipping variable start-at-flow-time-in-unsteady-inj-file for injection injection-1
Skipping variable interval-to-repeat-in-unsteady-inj-file for injection injection-1
Skipping variable seco-breakup-madabhushi-c0 for injection injection-1
Skipping variable seco-breakup-madabhushi-ligament-factor for injection injection-1
Skipping variable start-at-flow-time-in-unsteady-inj-file for injection injection-1
Skipping variable interval-to-repeat-in-unsteady-inj-file for injection injection-1
Skipping variable seco-breakup-madabhushi-c0 for injection injection-1
Skipping variable seco-breakup-madabhushi-ligament-factor for injection injection-1
Skipping variable start-at-flow-time-in-unsteady-inj-file for injection injection-1
Skipping variable interval-to-repeat-in-unsteady-inj-file for injection injection-1
     parallel,
Done.

> file/read-data OR-COR.dat.gz

Reading "\"| gunzip -c \\\"OR-COR.dat.gz\\\"\""...



Parallel variables...
Done.

> ;
;
; 
;
; solve/set/under-relaxation pressure 0.7 mom 0.3 temperature 1.0  k 0.8  epsilon 0.8
;
; solve/monitors/residual/convergence-criteria 1e-5 , , , , , , , , , , , , ;
;
;
; define/boundary-conditions/outlet-vent , , , , , , , , , , , , , , ,   5.0
;
;
;
file/auto-save/case-frequency if-case-is-modified

> file/auto-save/data-frequency 500

> file/auto-save/root-name OR-COR.gz

> ;
;
;
;
; solve/initialize/initialize-flow
; solve/initialize/hyb-initialization
; solve/initialize/fmg-initialization yes
;
;
;
;
; solve/iterate 6000
solve/set/time-step 0.2

> solve/dual-time-iterate 2500 50 
Updating solution at time level N... done.
Injecting 1734 particle parcels with mass 2e-11 at t = 0

Advancing DPM injections ....
number tracked = 1734, escaped = 0, aborted = 0, trapped = 95, evaporated = 0, incomplete = 0, incomplete_parallel = 0

  iter     time/iter
Volume Averaged Variable at (0.000000 0.100000 1.300000) is 0.000000e+00
  step  flow-time  volflow_or  volflow_in volflow_cor     temp_p1    temp_max pressure_or pressure_dif pressure_cor mass_balance heat_balance      dpm_p2      dpm_or     dpm_cor
     1  2.0000e-01 -2.1069e+00  2.1019e+00 -1.0800e-01  2.9410e+02  3.6344e+02  4.8395e+00  5.0040e+00 -1.6447e-01  3.8150e-08  1.1514e-01  0.0000e+00  0.0000e+00  2.8894e-13
Flow time = 0.2s, time step = 1
2499 more time steps

Updating solution at time level N... done.
Injecting 1734 particle parcels with mass 2e-11 at t = 0.2

Advancing DPM injections ....
number tracked = 3373, escaped = 0, aborted = 0, trapped = 166, evaporated = 0, incomplete = 0, incomplete_parallel = 0

  iter     time/iter
Volume Averaged Variable at (0.000000 0.100000 1.300000) is 0.000000e+00
  step  flow-time  volflow_or  volflow_in volflow_cor     temp_p1    temp_max pressure_or pressure_dif pressure_cor mass_balance heat_balance      dpm_p2      dpm_or     dpm_cor
     2  4.0000e-01 -2.1069e+00  2.1019e+00 -1.0800e-01  2.9410e+02  3.6344e+02  4.8395e+00  5.0040e+00 -1.6447e-01  3.8150e-08  1.1514e-01  0.0000e+00  0.0000e+00  5.6349e-13
Flow time = 0.4s, time step = 2
2498 more time steps

Updating solution at time level N... done.
Injecting 1734 particle parcels with mass 2e-11 at t = 0.4

Advancing DPM injections ....
number tracked = 4941, escaped = 0, aborted = 0, trapped = 153, evaporated = 0, incomplete = 0, incomplete_parallel = 0

  iter     time/iter
Volume Averaged Variable at (0.000000 0.100000 1.300000) is 0.000000e+00
  step  flow-time  volflow_or  volflow_in volflow_cor     temp_p1    temp_max pressure_or pressure_dif pressure_cor mass_balance heat_balance      dpm_p2      dpm_or     dpm_cor
     3  6.0000e-01 -2.1069e+00  2.1019e+00 -1.0800e-01  2.9410e+02  3.6344e+02  4.8395e+00  5.0040e+00 -1.6447e-01  3.8150e-08  1.1514e-01  0.0000e+00  0.0000e+00  8.3563e-13
Flow time = 0.6000000000000001s, time step = 3
2497 more time steps

Updating solution at time level N... done.
Injecting 1734 particle parcels with mass 2e-11 at t = 0.6

Advancing DPM injections ....
number tracked = 6522, escaped = 0, aborted = 0, trapped = 184, evaporated = 0, incomplete = 0, incomplete_parallel = 0

  iter     time/iter
Volume Averaged Variable at (0.000000 0.100000 1.300000) is 0.000000e+00
  step  flow-time  volflow_or  volflow_in volflow_cor     temp_p1    temp_max pressure_or pressure_dif pressure_cor mass_balance heat_balance      dpm_p2      dpm_or     dpm_cor
     4  8.0000e-01 -2.1069e+00  2.1019e+00 -1.0800e-01  2.9410e+02  3.6344e+02  4.8395e+00  5.0040e+00 -1.6447e-01  3.8150e-08  1.1514e-01  0.0000e+00  0.0000e+00  1.1050e-12
Flow time = 0.8s, time step = 4
2496 more time steps

Updating solution at time level N... done.
Injecting 1734 particle parcels with mass 2e-11 at t = 0.8

Advancing DPM injections ....
number tracked = 8072, escaped = 0, aborted = 0, trapped = 190, evaporated = 0, incomplete = 0, incomplete_parallel = 0

  iter     time/iter
Volume Averaged Variable at (0.000000 0.100000 1.300000) is 0.000000e+00
  step  flow-time  volflow_or  volflow_in volflow_cor     temp_p1    temp_max pressure_or pressure_dif pressure_cor mass_balance heat_balance      dpm_p2      dpm_or     dpm_cor
     5  1.0000e+00 -2.1069e+00  2.1019e+00 -1.0800e-01  2.9410e+02  3.6344e+02  4.8395e+00  5.0040e+00 -1.6447e-01  3.8150e-08  1.1514e-01  0.0000e+00  0.0000e+00  1.3698e-12
Flow time = 1s, time step = 5
2495 more time steps

Updating solution at time level N... done.
Injecting 1734 particle parcels with mass 2e-11 at t = 1

Advancing DPM injections ....
number tracked = 9616, escaped = 0, aborted = 0, trapped = 224, evaporated = 0, incomplete = 0, incomplete_parallel = 0

  iter     time/iter
Volume Averaged Variable at (0.000000 0.100000 1.300000) is 0.000000e+00
  step  flow-time  volflow_or  volflow_in volflow_cor     temp_p1    temp_max pressure_or pressure_dif pressure_cor mass_balance heat_balance      dpm_p2      dpm_or     dpm_cor
     6  1.2000e+00 -2.1069e+00  2.1019e+00 -1.0800e-01  2.9410e+02  3.6344e+02  4.8395e+00  5.0040e+00 -1.6447e-01  3.8150e-08  1.1514e-01  0.0000e+00  0.0000e+00  1.6323e-12
Flow time = 1.2s, time step = 6
2494 more time steps

Updating solution at time level N... done.
Injecting 1734 particle parcels with mass 2e-11 at t = 1.2

Advancing DPM injections ....
number tracked = 11126, escaped = 0, aborted = 0, trapped = 223, evaporated = 0, incomplete = 0, incomplete_parallel = 0

  iter     time/iter
Volume Averaged Variable at (0.000000 0.100000 1.300000) is 0.000000e+00
  step  flow-time  volflow_or  volflow_in volflow_cor     temp_p1    temp_max pressure_or pressure_dif pressure_cor mass_balance heat_balance      dpm_p2      dpm_or     dpm_cor
     7  1.4000e+00 -2.1069e+00  2.1019e+00 -1.0800e-01  2.9410e+02  3.6344e+02  4.8395e+00  5.0040e+00 -1.6447e-01  3.8150e-08  1.1514e-01  0.0000e+00  0.0000e+00  1.8925e-12
Flow time = 1.4s, time step = 7
2493 more time steps

Updating solution at time level N... done.
Injecting 1734 particle parcels with mass 2e-11 at t = 1.4

Advancing DPM injections ....
number tracked = 12637, escaped = 0, aborted = 0, trapped = 217, evaporated = 0, incomplete = 0, incomplete_parallel = 0

  iter     time/iter
Volume Averaged Variable at (0.000000 0.100000 1.300000) is 0.000000e+00
  step  flow-time  volflow_or  volflow_in volflow_cor     temp_p1    temp_max pressure_or pressure_dif pressure_cor mass_balance heat_balance      dpm_p2      dpm_or     dpm_cor
     8  1.6000e+00 -2.1069e+00  2.1019e+00 -1.0800e-01  2.9410e+02  3.6344e+02  4.8395e+00  5.0040e+00 -1.6447e-01  3.8150e-08  1.1514e-01  0.0000e+00  0.0000e+00  2.1533e-12
Flow time = 1.6s, time step = 8
2492 more time steps

Updating solution at time level N... done.
Injecting 1734 particle parcels with mass 2e-11 at t = 1.6

Advancing DPM injections ....
number tracked = 14154, escaped = 0, aborted = 0, trapped = 231, evaporated = 0, incomplete = 0, incomplete_parallel = 0

  iter     time/iter
Volume Averaged Variable at (0.000000 0.100000 1.300000) is 0.000000e+00
  step  flow-time  volflow_or  volflow_in volflow_cor     temp_p1    temp_max pressure_or pressure_dif pressure_cor mass_balance heat_balance      dpm_p2      dpm_or     dpm_cor
     9  1.8000e+00 -2.1069e+00  2.1019e+00 -1.0800e-01  2.9410e+02  3.6344e+02  4.8395e+00  5.0040e+00 -1.6447e-01  3.8150e-08  1.1514e-01  0.0000e+00  0.0000e+00  2.4143e-12
Flow time = 1.8s, time step = 9
2491 more time steps

Updating solution at time level N... done.
Injecting 1734 particle parcels with mass 2e-11 at t = 1.8

Advancing DPM injections ....
number tracked = 15657, escaped = 0, aborted = 0, trapped = 226, evaporated = 0, incomplete = 0, incomplete_parallel = 0

  iter     time/iter
Volume Averaged Variable at (0.000000 0.100000 1.300000) is 0.000000e+00
/file/read-macros controlruntime.scm
Loading "././controlruntime.scm"
Done.

> 
  step  flow-time  volflow_or  volflow_in volflow_cor     temp_p1    temp_max pressure_or pressure_dif pressure_cor mass_balance heat_balance      dpm_p2      dpm_or     dpm_cor
    10  2.0000e+00 -2.1069e+00  2.1019e+00 -1.0800e-01  2.9410e+02  3.6344e+02  4.8395e+00  5.0040e+00 -1.6447e-01  3.8150e-08  1.1514e-01  0.0000e+00  0.0000e+00  2.6728e-12
Flow time = 2s, time step = 10
2490 more time steps

Updating solution at time level N... done.
Injecting 1734 particle parcels with mass 2e-11 at t = 2

Advancing DPM injections ....
number tracked = 17165, escaped = 0, aborted = 0, trapped = 241, evaporated = 0, incomplete = 0, incomplete_parallel = 0

  iter     time/iter
Volume Averaged Variable at (0.000000 0.100000 1.300000) is 0.000000e+00
  step  flow-time  volflow_or  volflow_in volflow_cor     temp_p1    temp_max pressure_or pressure_dif pressure_cor mass_balance heat_balance      dpm_p2      dpm_or     dpm_cor
    11  2.2000e+00 -2.1069e+00  2.1019e+00 -1.0800e-01  2.9410e+02  3.6344e+02  4.8395e+00  5.0040e+00 -1.6447e-01  3.8150e-08  1.1514e-01  0.0000e+00  0.0000e+00  2.9317e-12
Flow time = 2.2s, time step = 11
2489 more time steps

Updating solution at time level N... done.
Injecting 1734 particle parcels with mass 2e-11 at t = 2.2

Advancing DPM injections ....
number tracked = 18658, escaped = 0, aborted = 0, trapped = 246, evaporated = 0, incomplete = 0, incomplete_parallel = 0

  iter     time/iter
Volume Averaged Variable at (0.000000 0.100000 1.300000) is 0.000000e+00
  step  flow-time  volflow_or  volflow_in volflow_cor     temp_p1    temp_max pressure_or pressure_dif pressure_cor mass_balance heat_balance      dpm_p2      dpm_or     dpm_cor
    12  2.4000e+00 -2.1069e+00  2.1019e+00 -1.0800e-01  2.9410e+02  3.6344e+02  4.8395e+00  5.0040e+00 -1.6447e-01  3.8150e-08  1.1514e-01  0.0000e+00  0.0000e+00  3.1889e-12
Flow time = 2.4s, time step = 12
2488 more time steps

Updating solution at time level N... done.
Injecting 1734 particle parcels with mass 2e-11 at t = 2.4

Advancing DPM injections ....
number tracked = 20146, escaped = 0, aborted = 0, trapped = 283, evaporated = 0, incomplete = 0, incomplete_parallel = 0

  iter     time/iter
Volume Averaged Variable at (0.000000 0.100000 1.300000) is 0.000000e+00
  step  flow-time  volflow_or  volflow_in volflow_cor     temp_p1    temp_max pressure_or pressure_dif pressure_cor mass_balance heat_balance      dpm_p2      dpm_or     dpm_cor
    13  2.6000e+00 -2.1069e+00  2.1019e+00 -1.0800e-01  2.9410e+02  3.6344e+02  4.8395e+00  5.0040e+00 -1.6447e-01  3.8150e-08  1.1514e-01  0.0000e+00  0.0000e+00  3.4393e-12
Flow time = 2.6s, time step = 13
2487 more time steps

Updating solution at time level N... done.
Injecting 1734 particle parcels with mass 2e-11 at t = 2.6

Advancing DPM injections ....
number tracked = 21597, escaped = 0, aborted = 0, trapped = 266, evaporated = 0, incomplete = 0, incomplete_parallel = 0

  iter     time/iter
Volume Averaged Variable at (0.000000 0.100000 1.300000) is 0.000000e+00
  step  flow-time  volflow_or  volflow_in volflow_cor     temp_p1    temp_max pressure_or pressure_dif pressure_cor mass_balance heat_balance      dpm_p2      dpm_or     dpm_cor
    14  2.8000e+00 -2.1069e+00  2.1019e+00 -1.0800e-01  2.9410e+02  3.6344e+02  4.8395e+00  5.0040e+00 -1.6447e-01  3.8150e-08  1.1514e-01  0.0000e+00  0.0000e+00  3.6904e-12
Flow time = 2.8s, time step = 14
2486 more time steps

Updating solution at time level N... done.
Injecting 1734 particle parcels with mass 2e-11 at t = 2.8

Advancing DPM injections ....
number tracked = 23065, escaped = 0, aborted = 0, trapped = 246, evaporated = 0, incomplete = 0, incomplete_parallel = 0

  iter     time/iter
Volume Averaged Variable at (0.000000 0.100000 1.300000) is 0.000000e+00
  step  flow-time  volflow_or  volflow_in volflow_cor     temp_p1    temp_max pressure_or pressure_dif pressure_cor mass_balance heat_balance      dpm_p2      dpm_or     dpm_cor
    15  3.0000e+00 -2.1069e+00  2.1019e+00 -1.0800e-01  2.9410e+02  3.6344e+02  4.8395e+00  5.0040e+00 -1.6447e-01  3.8150e-08  1.1514e-01  0.0000e+00  0.0000e+00  3.9468e-12
Flow time = 3s, time step = 15
2485 more time steps

Updating solution at time level N... done.
Injecting 1734 particle parcels with mass 2e-11 at t = 3

Advancing DPM injections ....
number tracked = 24553, escaped = 0, aborted = 0, trapped = 260, evaporated = 0, incomplete = 0, incomplete_parallel = 0

  iter     time/iter
Volume Averaged Variable at (0.000000 0.100000 1.300000) is 0.000000e+00
  step  flow-time  volflow_or  volflow_in volflow_cor     temp_p1    temp_max pressure_or pressure_dif pressure_cor mass_balance heat_balance      dpm_p2      dpm_or     dpm_cor
    16  3.2000e+00 -2.1069e+00  2.1019e+00 -1.0800e-01  2.9410e+02  3.6344e+02  4.8395e+00  5.0040e+00 -1.6447e-01  3.8150e-08  1.1514e-01  0.0000e+00  0.0000e+00  4.2019e-12
Flow time = 3.2s, time step = 16
2484 more time steps

Updating solution at time level N... done.
Injecting 1734 particle parcels with mass 2e-11 at t = 3.2

Advancing DPM injections ....
number tracked = 26027, escaped = 0, aborted = 0, trapped = 256, evaporated = 0, incomplete = 0, incomplete_parallel = 0

  iter     time/iter
Volume Averaged Variable at (0.000000 0.100000 1.300000) is 0.000000e+00
  step  flow-time  volflow_or  volflow_in volflow_cor     temp_p1    temp_max pressure_or pressure_dif pressure_cor mass_balance heat_balance      dpm_p2      dpm_or     dpm_cor
    17  3.4000e+00 -2.1069e+00  2.1019e+00 -1.0800e-01  2.9410e+02  3.6344e+02  4.8395e+00  5.0040e+00 -1.6447e-01  3.8150e-08  1.1514e-01  0.0000e+00  0.0000e+00  4.4576e-12
Flow time = 3.4s, time step = 17
2483 more time steps

Updating solution at time level N... done.
Injecting 1734 particle parcels with mass 2e-11 at t = 3.4

Advancing DPM injections ....
number tracked = 27505, escaped = 0, aborted = 0, trapped = 248, evaporated = 0, incomplete = 0, incomplete_parallel = 0

  iter     time/iter
Volume Averaged Variable at (0.000000 0.100000 1.300000) is 0.000000e+00
  step  flow-time  volflow_or  volflow_in volflow_cor     temp_p1    temp_max pressure_or pressure_dif pressure_cor mass_balance heat_balance      dpm_p2      dpm_or     dpm_cor
    18  3.6000e+00 -2.1069e+00  2.1019e+00 -1.0800e-01  2.9410e+02  3.6344e+02  4.8395e+00  5.0040e+00 -1.6447e-01  3.8150e-08  1.1514e-01  0.0000e+00  0.0000e+00  4.7112e-12
Flow time = 3.6s, time step = 18
2482 more time steps

Updating solution at time level N... done.
Injecting 1734 particle parcels with mass 2e-11 at t = 3.6

Advancing DPM injections ....
number tracked = 28991, escaped = 0, aborted = 0, trapped = 246, evaporated = 0, incomplete = 0, incomplete_parallel = 0

  iter     time/iter
Volume Averaged Variable at (0.000000 0.100000 1.300000) is 0.000000e+00
  step  flow-time  volflow_or  volflow_in volflow_cor     temp_p1    temp_max pressure_or pressure_dif pressure_cor mass_balance heat_balance      dpm_p2      dpm_or     dpm_cor
    19  3.8000e+00 -2.1069e+00  2.1019e+00 -1.0800e-01  2.9410e+02  3.6344e+02  4.8395e+00  5.0040e+00 -1.6447e-01  3.8150e-08  1.1514e-01  0.0000e+00  0.0000e+00  4.9678e-12
Flow time = 3.8s, time step = 19
2481 more time steps

Updating solution at time level N... done.
Injecting 1734 particle parcels with mass 2e-11 at t = 3.8

Advancing DPM injections ....
number tracked = 30479, escaped = 1, aborted = 0, trapped = 256, evaporated = 0, incomplete = 0, incomplete_parallel = 0

  iter     time/iter
Volume Averaged Variable at (0.000000 0.100000 1.300000) is 0.000000e+00
/file/read-macros controlruntime.scm
Loading "././controlruntime.scm"
Done.

> 
  step  flow-time  volflow_or  volflow_in volflow_cor     temp_p1    temp_max pressure_or pressure_dif pressure_cor mass_balance heat_balance      dpm_p2      dpm_or     dpm_cor
    20  4.0000e+00 -2.1069e+00  2.1019e+00 -1.0800e-01  2.9410e+02  3.6344e+02  4.8395e+00  5.0040e+00 -1.6447e-01  3.8150e-08  1.1514e-01  0.0000e+00  0.0000e+00  5.2235e-12
Flow time = 4s, time step = 20
2480 more time steps

Updating solution at time level N... done.
Injecting 1734 particle parcels with mass 2e-11 at t = 4

Advancing DPM injections ....
number tracked = 31956, escaped = 0, aborted = 0, trapped = 252, evaporated = 0, incomplete = 0, incomplete_parallel = 0

  iter     time/iter
Volume Averaged Variable at (0.000000 0.100000 1.300000) is 0.000000e+00
  step  flow-time  volflow_or  volflow_in volflow_cor     temp_p1    temp_max pressure_or pressure_dif pressure_cor mass_balance heat_balance      dpm_p2      dpm_or     dpm_cor
    21  4.2000e+00 -2.1069e+00  2.1019e+00 -1.0800e-01  2.9410e+02  3.6344e+02  4.8395e+00  5.0040e+00 -1.6447e-01  3.8150e-08  1.1514e-01  0.0000e+00  0.0000e+00  5.4772e-12
Flow time = 4.2s, time step = 21
2479 more time steps

Updating solution at time level N... done.
Injecting 1734 particle parcels with mass 2e-11 at t = 4.2

Advancing DPM injections ....
number tracked = 33438, escaped = 1, aborted = 0, trapped = 257, evaporated = 0, incomplete = 0, incomplete_parallel = 0

  iter     time/iter
Volume Averaged Variable at (0.000000 0.100000 1.300000) is 0.000000e+00
  step  flow-time  volflow_or  volflow_in volflow_cor     temp_p1    temp_max pressure_or pressure_dif pressure_cor mass_balance heat_balance      dpm_p2      dpm_or     dpm_cor
    22  4.4000e+00 -2.1069e+00  2.1019e+00 -1.0800e-01  2.9410e+02  3.6344e+02  4.8395e+00  5.0040e+00 -1.6447e-01  3.8150e-08  1.1514e-01  0.0000e+00  0.0000e+00  5.7339e-12
Flow time = 4.4s, time step = 22
2478 more time steps

Updating solution at time level N... done.
Injecting 1734 particle parcels with mass 2e-11 at t = 4.4

Advancing DPM injections ....
number tracked = 34914, escaped = 1, aborted = 0, trapped = 278, evaporated = 0, incomplete = 0, incomplete_parallel = 0

  iter     time/iter
Volume Averaged Variable at (0.000000 0.100000 1.300000) is 0.000000e+00
  step  flow-time  volflow_or  volflow_in volflow_cor     temp_p1    temp_max pressure_or pressure_dif pressure_cor mass_balance heat_balance      dpm_p2      dpm_or     dpm_cor
    23  4.6000e+00 -2.1069e+00  2.1019e+00 -1.0800e-01  2.9410e+02  3.6344e+02  4.8395e+00  5.0040e+00 -1.6447e-01  3.8150e-08  1.1514e-01  0.0000e+00  0.0000e+00  5.9862e-12
Flow time = 4.600000000000001s, time step = 23
2477 more time steps

Updating solution at time level N... done.
Injecting 1734 particle parcels with mass 2e-11 at t = 4.6

Advancing DPM injections ....
number tracked = 36369, escaped = 2, aborted = 0, trapped = 294, evaporated = 0, incomplete = 0, incomplete_parallel = 0

  iter     time/iter
Volume Averaged Variable at (0.000000 0.100000 1.300000) is 0.000000e+00
  step  flow-time  volflow_or  volflow_in volflow_cor     temp_p1    temp_max pressure_or pressure_dif pressure_cor mass_balance heat_balance      dpm_p2      dpm_or     dpm_cor
    24  4.8000e+00 -2.1069e+00  2.1019e+00 -1.0800e-01  2.9410e+02  3.6344e+02  4.8395e+00  5.0040e+00 -1.6447e-01  3.8150e-08  1.1514e-01  0.0000e+00  0.0000e+00  6.2337e-12
Flow time = 4.800000000000001s, time step = 24
2476 more time steps

Updating solution at time level N... done.
Injecting 1734 particle parcels with mass 2e-11 at t = 4.8

Advancing DPM injections ....
number tracked = 37807, escaped = 1, aborted = 0, trapped = 279, evaporated = 0, incomplete = 0, incomplete_parallel = 0

  iter     time/iter
Volume Averaged Variable at (0.000000 0.100000 1.300000) is 0.000000e+00
  step  flow-time  volflow_or  volflow_in volflow_cor     temp_p1    temp_max pressure_or pressure_dif pressure_cor mass_balance heat_balance      dpm_p2      dpm_or     dpm_cor
    25  5.0000e+00 -2.1069e+00  2.1019e+00 -1.0800e-01  2.9410e+02  3.6344e+02  4.8395e+00  5.0040e+00 -1.6447e-01  3.8150e-08  1.1514e-01  0.0000e+00  0.0000e+00  6.4822e-12
Flow time = 5s, time step = 25
2475 more time steps

Updating solution at time level N... done.
Injecting 1734 particle parcels with mass 2e-11 at t = 5

Advancing DPM injections ....
number tracked = 39261, escaped = 2, aborted = 0, trapped = 264, evaporated = 0, incomplete = 0, incomplete_parallel = 0

  iter     time/iter
Volume Averaged Variable at (0.000000 0.100000 1.300000) is 0.000000e+00
  step  flow-time  volflow_or  volflow_in volflow_cor     temp_p1    temp_max pressure_or pressure_dif pressure_cor mass_balance heat_balance      dpm_p2      dpm_or     dpm_cor
    26  5.2000e+00 -2.1069e+00  2.1019e+00 -1.0800e-01  2.9410e+02  3.6344e+02  4.8395e+00  5.0040e+00 -1.6447e-01  3.8150e-08  1.1514e-01  0.0000e+00  0.0000e+00  6.7334e-12
Flow time = 5.2s, time step = 26
2474 more time steps

Updating solution at time level N... done.
Injecting 1734 particle parcels with mass 2e-11 at t = 5.2

Advancing DPM injections ....
number tracked = 40729, escaped = 2, aborted = 0, trapped = 283, evaporated = 0, incomplete = 0, incomplete_parallel = 0

  iter     time/iter
Volume Averaged Variable at (0.000000 0.100000 1.300000) is 0.000000e+00
  step  flow-time  volflow_or  volflow_in volflow_cor     temp_p1    temp_max pressure_or pressure_dif pressure_cor mass_balance heat_balance      dpm_p2      dpm_or     dpm_cor
    27  5.4000e+00 -2.1069e+00  2.1019e+00 -1.0800e-01  2.9410e+02  3.6344e+02  4.8395e+00  5.0040e+00 -1.6447e-01  3.8150e-08  1.1514e-01  0.0000e+00  0.0000e+00  6.9846e-12
Flow time = 5.4s, time step = 27
2473 more time steps

Updating solution at time level N... done.
Injecting 1734 particle parcels with mass 2e-11 at t = 5.4

Advancing DPM injections ....
number tracked = 42178, escaped = 5, aborted = 0, trapped = 254, evaporated = 0, incomplete = 0, incomplete_parallel = 0

  iter     time/iter
Volume Averaged Variable at (0.000000 0.100000 1.300000) is 0.000000e+00
  step  flow-time  volflow_or  volflow_in volflow_cor     temp_p1    temp_max pressure_or pressure_dif pressure_cor mass_balance heat_balance      dpm_p2      dpm_or     dpm_cor
    28  5.6000e+00 -2.1069e+00  2.1019e+00 -1.0800e-01  2.9410e+02  3.6344e+02  4.8395e+00  5.0040e+00 -1.6447e-01  3.8150e-08  1.1514e-01  0.0000e+00  0.0000e+00  7.2392e-12
Flow time = 5.600000000000001s, time step = 28
2472 more time steps

Updating solution at time level N... done.
Injecting 1734 particle parcels with mass 2e-11 at t = 5.6

Advancing DPM injections ....
number tracked = 43653, escaped = 4, aborted = 0, trapped = 269, evaporated = 0, incomplete = 0, incomplete_parallel = 0

  iter     time/iter
Volume Averaged Variable at (0.000000 0.100000 1.300000) is 0.000000e+00
  step  flow-time  volflow_or  volflow_in volflow_cor     temp_p1    temp_max pressure_or pressure_dif pressure_cor mass_balance heat_balance      dpm_p2      dpm_or     dpm_cor
    29  5.8000e+00 -2.1069e+00  2.1019e+00 -1.0800e-01  2.9410e+02  3.6344e+02  4.8395e+00  5.0040e+00 -1.6447e-01  3.8150e-08  1.1514e-01  0.0000e+00  0.0000e+00  7.4901e-12
Flow time = 5.800000000000001s, time step = 29
2471 more time steps

Updating solution at time level N... done.
Injecting 1734 particle parcels with mass 2e-11 at t = 5.8

Advancing DPM injections ....
number tracked = 45114, escaped = 1, aborted = 0, trapped = 288, evaporated = 0, incomplete = 0, incomplete_parallel = 0

  iter     time/iter
Volume Averaged Variable at (0.000000 0.100000 1.300000) is 0.000000e+00
/file/read-macros controlruntime.scm
Loading "././controlruntime.scm"
Done.

> 
  step  flow-time  volflow_or  volflow_in volflow_cor     temp_p1    temp_max pressure_or pressure_dif pressure_cor mass_balance heat_balance      dpm_p2      dpm_or     dpm_cor
    30  6.0000e+00 -2.1069e+00  2.1019e+00 -1.0800e-01  2.9410e+02  3.6344e+02  4.8395e+00  5.0040e+00 -1.6447e-01  3.8150e-08  1.1514e-01  0.0000e+00  0.0000e+00  7.7409e-12
Flow time = 6s, time step = 30
2470 more time steps

Updating solution at time level N... done.
Injecting 1734 particle parcels with mass 2e-11 at t = 6

Advancing DPM injections ....
number tracked = 46559, escaped = 3, aborted = 0, trapped = 261, evaporated = 0, incomplete = 0, incomplete_parallel = 0

  iter     time/iter
Volume Averaged Variable at (0.000000 0.100000 1.300000) is 0.000000e+00
  step  flow-time  volflow_or  volflow_in volflow_cor     temp_p1    temp_max pressure_or pressure_dif pressure_cor mass_balance heat_balance      dpm_p2      dpm_or     dpm_cor
    31  6.2000e+00 -2.1069e+00  2.1019e+00 -1.0800e-01  2.9410e+02  3.6344e+02  4.8395e+00  5.0040e+00 -1.6447e-01  3.8150e-08  1.1514e-01  0.0000e+00  0.0000e+00  7.9933e-12
Flow time = 6.2s, time step = 31
2469 more time steps

Updating solution at time level N... done.
Injecting 1734 particle parcels with mass 2e-11 at t = 6.2

Advancing DPM injections ....
number tracked = 48029, escaped = 13, aborted = 0, trapped = 293, evaporated = 0, incomplete = 0, incomplete_parallel = 0

  iter     time/iter
Volume Averaged Variable at (0.000000 0.100000 1.300000) is 0.000000e+00
  step  flow-time  volflow_or  volflow_in volflow_cor     temp_p1    temp_max pressure_or pressure_dif pressure_cor mass_balance heat_balance      dpm_p2      dpm_or     dpm_cor
    32  6.4000e+00 -2.1069e+00  2.1019e+00 -1.0800e-01  2.9410e+02  3.6344e+02  4.8395e+00  5.0040e+00 -1.6447e-01  3.8150e-08  1.1514e-01  0.0000e+00  0.0000e+00  8.2441e-12
Flow time = 6.4s, time step = 32
2468 more time steps

Updating solution at time level N... done.
Injecting 1734 particle parcels with mass 2e-11 at t = 6.4

Advancing DPM injections ....
number tracked = 49457, escaped = 4, aborted = 0, trapped = 291, evaporated = 0, incomplete = 0, incomplete_parallel = 0

  iter     time/iter
Volume Averaged Variable at (0.000000 0.100000 1.300000) is 0.000000e+00
  step  flow-time  volflow_or  volflow_in volflow_cor     temp_p1    temp_max pressure_or pressure_dif pressure_cor mass_balance heat_balance      dpm_p2      dpm_or     dpm_cor
    33  6.6000e+00 -2.1069e+00  2.1019e+00 -1.0800e-01  2.9410e+02  3.6344e+02  4.8395e+00  5.0040e+00 -1.6447e-01  3.8150e-08  1.1514e-01  0.0000e+00  0.0000e+00  8.4898e-12
Flow time = 6.600000000000001s, time step = 33
2467 more time steps

Updating solution at time level N... done.
Injecting 1734 particle parcels with mass 2e-11 at t = 6.6

Advancing DPM injections ....
number tracked = 50896, escaped = 17, aborted = 0, trapped = 294, evaporated = 0, incomplete = 0, incomplete_parallel = 0

  iter     time/iter
Volume Averaged Variable at (0.000000 0.100000 1.300000) is 0.000000e+00
  step  flow-time  volflow_or  volflow_in volflow_cor     temp_p1    temp_max pressure_or pressure_dif pressure_cor mass_balance heat_balance      dpm_p2      dpm_or     dpm_cor
    34  6.8000e+00 -2.1069e+00  2.1019e+00 -1.0800e-01  2.9410e+02  3.6344e+02  4.8395e+00  5.0040e+00 -1.6447e-01  3.8150e-08  1.1514e-01  0.0000e+00  0.0000e+00  8.7357e-12
Flow time = 6.800000000000001s, time step = 34
2466 more time steps

Updating solution at time level N... done.
Injecting 1734 particle parcels with mass 2e-11 at t = 6.8

Advancing DPM injections ....
number tracked = 52319, escaped = 23, aborted = 0, trapped = 296, evaporated = 0, incomplete = 0, incomplete_parallel = 0

  iter     time/iter
Volume Averaged Variable at (0.000000 0.100000 1.300000) is 0.000000e+00
  step  flow-time  volflow_or  volflow_in volflow_cor     temp_p1    temp_max pressure_or pressure_dif pressure_cor mass_balance heat_balance      dpm_p2      dpm_or     dpm_cor
    35  7.0000e+00 -2.1069e+00  2.1019e+00 -1.0800e-01  2.9410e+02  3.6344e+02  4.8395e+00  5.0040e+00 -1.6447e-01  3.8150e-08  1.1514e-01  0.0000e+00  0.0000e+00  8.9808e-12
Flow time = 7s, time step = 35
2465 more time steps

Updating solution at time level N... done.
Injecting 1734 particle parcels with mass 2e-11 at t = 7

Advancing DPM injections ....
number tracked = 53734, escaped = 12, aborted = 0, trapped = 241, evaporated = 0, incomplete = 0, incomplete_parallel = 0

  iter     time/iter
Volume Averaged Variable at (0.000000 0.100000 1.300000) is 0.000000e+00
  step  flow-time  volflow_or  volflow_in volflow_cor     temp_p1    temp_max pressure_or pressure_dif pressure_cor mass_balance heat_balance      dpm_p2      dpm_or     dpm_cor
    36  7.2000e+00 -2.1069e+00  2.1019e+00 -1.0800e-01  2.9410e+02  3.6344e+02  4.8395e+00  5.0040e+00 -1.6447e-01  3.8150e-08  1.1514e-01  0.0000e+00  0.0000e+00  9.2302e-12
Flow time = 7.2s, time step = 36
2464 more time steps

Updating solution at time level N... done.
Injecting 1734 particle parcels with mass 2e-11 at t = 7.2

Advancing DPM injections ....
number tracked = 55215, escaped = 14, aborted = 0, trapped = 264, evaporated = 0, incomplete = 0, incomplete_parallel = 0

  iter     time/iter
Volume Averaged Variable at (0.000000 0.100000 1.300000) is 0.000000e+00
  step  flow-time  volflow_or  volflow_in volflow_cor     temp_p1    temp_max pressure_or pressure_dif pressure_cor mass_balance heat_balance      dpm_p2      dpm_or     dpm_cor
    37  7.4000e+00 -2.1069e+00  2.1019e+00 -1.0800e-01  2.9410e+02  3.6344e+02  4.8395e+00  5.0040e+00 -1.6447e-01  3.8150e-08  1.1514e-01  0.0000e+00  0.0000e+00  9.4875e-12
Flow time = 7.4s, time step = 37
2463 more time steps

Updating solution at time level N... done.
Injecting 1734 particle parcels with mass 2e-11 at t = 7.4

Advancing DPM injections ....
number tracked = 56671, escaped = 15, aborted = 0, trapped = 295, evaporated = 0, incomplete = 0, incomplete_parallel = 0

  iter     time/iter
Volume Averaged Variable at (0.000000 0.100000 1.300000) is 0.000000e+00
  step  flow-time  volflow_or  volflow_in volflow_cor     temp_p1    temp_max pressure_or pressure_dif pressure_cor mass_balance heat_balance      dpm_p2      dpm_or     dpm_cor
    38  7.6000e+00 -2.1069e+00  2.1019e+00 -1.0800e-01  2.9410e+02  3.6344e+02  4.8395e+00  5.0040e+00 -1.6447e-01  3.8150e-08  1.1514e-01  0.0000e+00  0.0000e+00  9.7324e-12
Flow time = 7.600000000000001s, time step = 38
2462 more time steps

Updating solution at time level N... done.
Injecting 1734 particle parcels with mass 2e-11 at t = 7.6

Advancing DPM injections ....
number tracked = 58095, escaped = 30, aborted = 0, trapped = 307, evaporated = 0, incomplete = 0, incomplete_parallel = 0

  iter     time/iter
Volume Averaged Variable at (0.000000 0.100000 1.300000) is 0.000000e+00
  step  flow-time  volflow_or  volflow_in volflow_cor     temp_p1    temp_max pressure_or pressure_dif pressure_cor mass_balance heat_balance      dpm_p2      dpm_or     dpm_cor
    39  7.8000e+00 -2.1069e+00  2.1019e+00 -1.0800e-01  2.9410e+02  3.6344e+02  4.8395e+00  5.0040e+00 -1.6447e-01  3.8150e-08  1.1514e-01  0.0000e+00  0.0000e+00  9.9754e-12
Flow time = 7.800000000000001s, time step = 39
2461 more time steps

Updating solution at time level N... done.
Injecting 1734 particle parcels with mass 2e-11 at t = 7.8

Advancing DPM injections ....
number tracked = 59492, escaped = 21, aborted = 0, trapped = 287, evaporated = 0, incomplete = 0, incomplete_parallel = 0

  iter     time/iter
Volume Averaged Variable at (0.000000 0.100000 1.300000) is 0.000000e+00
/file/read-macros controlruntime.scm
Loading "././controlruntime.scm"
/file/auto-save/data-frequency 200Done.

> 
  step  flow-time  volflow_or  volflow_in volflow_cor     temp_p1    temp_max pressure_or pressure_dif pressure_cor mass_balance heat_balance      dpm_p2      dpm_or     dpm_cor
    40  8.0000e+00 -2.1069e+00  2.1019e+00 -1.0800e-01  2.9410e+02  3.6344e+02  4.8395e+00  5.0040e+00 -1.6447e-01  3.8150e-08  1.1514e-01  0.0000e+00  0.0000e+00  1.0219e-11
Flow time = 8s, time step = 40
2460 more time steps

Updating solution at time level N... done.
Injecting 1734 particle parcels with mass 2e-11 at t = 8

Advancing DPM injections ....
number tracked = 60918, escaped = 23, aborted = 0, trapped = 306, evaporated = 0, incomplete = 0, incomplete_parallel = 0

  iter     time/iter
Volume Averaged Variable at (0.000000 0.100000 1.300000) is 0.000000e+00
  step  flow-time  volflow_or  volflow_in volflow_cor     temp_p1    temp_max pressure_or pressure_dif pressure_cor mass_balance heat_balance      dpm_p2      dpm_or     dpm_cor
    41  8.2000e+00 -2.1069e+00  2.1019e+00 -1.0800e-01  2.9410e+02  3.6344e+02  4.8395e+00  5.0040e+00 -1.6447e-01  3.8150e-08  1.1514e-01  0.0000e+00  0.0000e+00  1.0462e-11
Flow time = 8.200000000000001s, time step = 41
2459 more time steps

Updating solution at time level N... done.
Injecting 1734 particle parcels with mass 2e-11 at t = 8.2

Advancing DPM injections ....
number tracked = 62323, escaped = 34, aborted = 0, trapped = 308, evaporated = 0, incomplete = 0, incomplete_parallel = 0

  iter     time/iter
Volume Averaged Variable at (0.000000 0.100000 1.300000) is 0.000000e+00
  step  flow-time  volflow_or  volflow_in volflow_cor     temp_p1    temp_max pressure_or pressure_dif pressure_cor mass_balance heat_balance      dpm_p2      dpm_or     dpm_cor
    42  8.4000e+00 -2.1069e+00  2.1019e+00 -1.0800e-01  2.9410e+02  3.6344e+02  4.8395e+00  5.0040e+00 -1.6447e-01  3.8150e-08  1.1514e-01  0.0000e+00  0.0000e+00  1.0704e-11
Flow time = 8.4s, time step = 42
2458 more time steps

[...]
  step  flow-time  volflow_or  volflow_in volflow_cor     temp_p1    temp_max pressure_or pressure_dif pressure_cor mass_balance heat_balance      dpm_p2      dpm_or     dpm_cor
  1323  2.6460e+02 -2.1069e+00  2.1019e+00 -1.0800e-01  2.9410e+02  3.6344e+02  4.8395e+00  5.0040e+00 -1.6447e-01  3.8150e-08  1.1514e-01  0.0000e+00  0.0000e+00  8.0884e-11
Flow time = 264.6s, time step = 1323
1177 more time steps

Updating solution at time level N... done.
Injecting 1734 particle parcels with mass 2e-11 at t = 264.6

Advancing DPM injections ....
number tracked = 469646, escaped = 197, aborted = 0, trapped = 1451, evaporated = 0, incomplete = 0, incomplete_parallel = 0

  iter     time/iter
Volume Averaged Variable at (0.000000 0.100000 1.300000) is 0.000000e+00
  step  flow-time  volflow_or  volflow_in volflow_cor     temp_p1    temp_max pressure_or pressure_dif pressure_cor mass_balance heat_balance      dpm_p2      dpm_or     dpm_cor
  1324  2.6480e+02 -2.1069e+00  2.1019e+00 -1.0800e-01  2.9410e+02  3.6344e+02  4.8395e+00  5.0040e+00 -1.6447e-01  3.8150e-08  1.1514e-01  0.0000e+00  0.0000e+00  8.0894e-11
Flow time = 264.8s, time step = 1324
1176 more time steps

Updating solution at time level N... done.
Injecting 1734 particle parcels with mass 2e-11 at t = 264.8

Advancing DPM injections ....
number tracked = 469732, escaped = 191, aborted = 0, trapped = 1446, evaporated = 0, incomplete = 0, incomplete_parallel = 0

  iter     time/iter
Volume Averaged Variable at (0.000000 0.100000 1.300000) is 0.000000e+00
  step  flow-time  volflow_or  volflow_in volflow_cor     temp_p1    temp_max pressure_or pressure_dif pressure_cor mass_balance heat_balance      dpm_p2      dpm_or     dpm_cor
  1325  2.6500e+02 -2.1069e+00  2.1019e+00 -1.0800e-01  2.9410e+02  3.6344e+02  4.8395e+00  5.0040e+00 -1.6447e-01  3.8150e-08  1.1514e-01  0.0000e+00  0.0000e+00  8.0911e-11
Flow time = 265s, time step = 1325
1175 more time steps

Updating solution at time level N... done.
Injecting 1734 particle parcels with mass 2e-11 at t = 265

Advancing DPM injections ....
number tracked = 469829, escaped = 183, aborted = 0, trapped = 1499, evaporated = 0, incomplete = 0, incomplete_parallel = 0

  iter     time/iter
Volume Averaged Variable at (0.000000 0.100000 1.300000) is 0.000000e+00
  step  flow-time  volflow_or  volflow_in volflow_cor     temp_p1    temp_max pressure_or pressure_dif pressure_cor mass_balance heat_balance      dpm_p2      dpm_or     dpm_cor
  1326  2.6520e+02 -2.1069e+00  2.1019e+00 -1.0800e-01  2.9410e+02  3.6344e+02  4.8395e+00  5.0040e+00 -1.6447e-01  3.8150e-08  1.1514e-01  0.0000e+00  0.0000e+00  8.0918e-11
Flow time = 265.2s, time step = 1326
1174 more time steps

Updating solution at time level N... done.
Injecting 1734 particle parcels with mass 2e-11 at t = 265.2

Advancing DPM injections ....
number tracked = 469881, escaped = 170, aborted = 0, trapped = 1500, evaporated = 0, incomplete = 0, incomplete_parallel = 0

  iter     time/iter
Volume Averaged Variable at (0.000000 0.100000 1.300000) is 0.000000e+00
  step  flow-time  volflow_or  volflow_in volflow_cor     temp_p1    temp_max pressure_or pressure_dif pressure_cor mass_balance heat_balance      dpm_p2      dpm_or     dpm_cor
  1327  2.6540e+02 -2.1069e+00  2.1019e+00 -1.0800e-01  2.9410e+02  3.6344e+02  4.8395e+00  5.0040e+00 -1.6447e-01  3.8150e-08  1.1514e-01  0.0000e+00  0.0000e+00  8.0934e-11
Flow time = 265.4s, time step = 1327
1173 more time steps

Updating solution at time level N... done.
Injecting 1734 particle parcels with mass 2e-11 at t = 265.4

Advancing DPM injections ....
number tracked = 469945, escaped = 185, aborted = 0, trapped = 1524, evaporated = 0, incomplete = 0, incomplete_parallel = 0

  iter     time/iter
Volume Averaged Variable at (0.000000 0.100000 1.300000) is 0.000000e+00
  step  flow-time  volflow_or  volflow_in volflow_cor     temp_p1    temp_max pressure_or pressure_dif pressure_cor mass_balance heat_balance      dpm_p2      dpm_or     dpm_cor
  1328  2.6560e+02 -2.1069e+00  2.1019e+00 -1.0800e-01  2.9410e+02  3.6344e+02  4.8395e+00  5.0040e+00 -1.6447e-01  3.8150e-08  1.1514e-01  0.0000e+00  0.0000e+00  8.0939e-11
Flow time = 265.6s, time step = 1328
1172 more time steps

Updating solution at time level N... done.
Injecting 1734 particle parcels with mass 2e-11 at t = 265.6

Advancing DPM injections ....
number tracked = 469970, escaped = 176, aborted = 0, trapped = 1502, evaporated = 0, incomplete = 0, incomplete_parallel = 0

  iter     time/iter
Volume Averaged Variable at (0.000000 0.100000 1.300000) is 0.000000e+00
  step  flow-time  volflow_or  volflow_in volflow_cor     temp_p1    temp_max pressure_or pressure_dif pressure_cor mass_balance heat_balance      dpm_p2      dpm_or     dpm_cor
  1329  2.6580e+02 -2.1069e+00  2.1019e+00 -1.0800e-01  2.9410e+02  3.6344e+02  4.8395e+00  5.0040e+00 -1.6447e-01  3.8150e-08  1.1514e-01  0.0000e+00  0.0000e+00  8.0944e-11
Flow time = 265.8s, time step = 1329
1171 more time steps

Updating solution at time level N... done.
Injecting 1734 particle parcels with mass 2e-11 at t = 265.8

Advancing DPM injections ....
number tracked = 470026, escaped = 196, aborted = 0, trapped = 1506, evaporated = 0, incomplete = 0, incomplete_parallel = 0

  iter     time/iter
Volume Averaged Variable at (0.000000 0.100000 1.300000) is 0.000000e+00
/file/read-macros controlruntime.scm
Loading "././controlruntime.scm"
Done.

> 
  step  flow-time  volflow_or  volflow_in volflow_cor     temp_p1    temp_max pressure_or pressure_dif pressure_cor mass_balance heat_balance      dpm_p2      dpm_or     dpm_cor
  1330  2.6600e+02 -2.1069e+00  2.1019e+00 -1.0800e-01  2.9410e+02  3.6344e+02  4.8395e+00  5.0040e+00 -1.6447e-01  3.8150e-08  1.1514e-01  0.0000e+00  0.0000e+00  8.0949e-11
Flow time = 266s, time step = 1330
1170 more time steps

Updating solution at time level N... done.
Injecting 1734 particle parcels with mass 2e-11 at t = 266

Advancing DPM injections ....
number tracked = 470058, escaped = 206, aborted = 0, trapped = 1556, evaporated = 0, incomplete = 0, incomplete_parallel = 0

  iter     time/iter
Volume Averaged Variable at (0.000000 0.100000 1.300000) is 0.000000e+00
  step  flow-time  volflow_or  volflow_in volflow_cor     temp_p1    temp_max pressure_or pressure_dif pressure_cor mass_balance heat_balance      dpm_p2      dpm_or     dpm_cor
  1331  2.6620e+02 -2.1069e+00  2.1019e+00 -1.0800e-01  2.9410e+02  3.6344e+02  4.8395e+00  5.0040e+00 -1.6447e-01  3.8150e-08  1.1514e-01  0.0000e+00  0.0000e+00  8.0948e-11
Flow time = 266.2s, time step = 1331
1169 more time steps

Updating solution at time level N... done.
Injecting 1734 particle parcels with mass 2e-11 at t = 266.2

Advancing DPM injections ....
number tracked = 470030, escaped = 207, aborted = 0, trapped = 1519, evaporated = 0, incomplete = 0, incomplete_parallel = 0

  iter     time/iter
Volume Averaged Variable at (0.000000 0.100000 1.300000) is 0.000000e+00
  step  flow-time  volflow_or  volflow_in volflow_cor     temp_p1    temp_max pressure_or pressure_dif pressure_cor mass_balance heat_balance      dpm_p2      dpm_or     dpm_cor
  1332  2.6640e+02 -2.1069e+00  2.1019e+00 -1.0800e-01  2.9410e+02  3.6344e+02  4.8395e+00  5.0040e+00 -1.6447e-01  3.8150e-08  1.1514e-01  0.0000e+00  0.0000e+00  8.0950e-11
Flow time = 266.4s, time step = 1332
1168 more time steps

Updating solution at time level N... done.
Injecting 1734 particle parcels with mass 2e-11 at t = 266.4

Advancing DPM injections ....
number tracked = 470038, escaped = 189, aborted = 0, trapped = 1463, evaporated = 0, incomplete = 0, incomplete_parallel = 0

  iter     time/iter
Volume Averaged Variable at (0.000000 0.100000 1.300000) is 0.000000e+00
  step  flow-time  volflow_or  volflow_in volflow_cor     temp_p1    temp_max pressure_or pressure_dif pressure_cor mass_balance heat_balance      dpm_p2      dpm_or     dpm_cor
  1333  2.6660e+02 -2.1069e+00  2.1019e+00 -1.0800e-01  2.9410e+02  3.6344e+02  4.8395e+00  5.0040e+00 -1.6447e-01  3.8150e-08  1.1514e-01  0.0000e+00  0.0000e+00  8.0961e-11
Flow time = 266.6s, time step = 1333
1167 more time steps

Updating solution at time level N... done.
Injecting 1734 particle parcels with mass 2e-11 at t = 266.6

Advancing DPM injections ....
number tracked = 470120, escaped = 190, aborted = 0, trapped = 1537, evaporated = 0, incomplete = 0, incomplete_parallel = 0

  iter     time/iter
Volume Averaged Variable at (0.000000 0.100000 1.300000) is 0.000000e+00
  step  flow-time  volflow_or  volflow_in volflow_cor     temp_p1    temp_max pressure_or pressure_dif pressure_cor mass_balance heat_balance      dpm_p2      dpm_or     dpm_cor
  1334  2.6680e+02 -2.1069e+00  2.1019e+00 -1.0800e-01  2.9410e+02  3.6344e+02  4.8395e+00  5.0040e+00 -1.6447e-01  3.8150e-08  1.1514e-01  0.0000e+00  0.0000e+00  8.0964e-11
Flow time = 266.8s, time step = 1334
1166 more time steps

Updating solution at time level N... done.
Injecting 1734 particle parcels with mass 2e-11 at t = 266.8

Advancing DPM injections ....
number tracked = 470127, escaped = 187, aborted = 0, trapped = 1537, evaporated = 0, incomplete = 0, incomplete_parallel = 0

  iter     time/iter
Volume Averaged Variable at (0.000000 0.100000 1.300000) is 0.000000e+00
  step  flow-time  volflow_or  volflow_in volflow_cor     temp_p1    temp_max pressure_or pressure_dif pressure_cor mass_balance heat_balance      dpm_p2      dpm_or     dpm_cor
  1335  2.6700e+02 -2.1069e+00  2.1019e+00 -1.0800e-01  2.9410e+02  3.6344e+02  4.8395e+00  5.0040e+00 -1.6447e-01  3.8150e-08  1.1514e-01  0.0000e+00  0.0000e+00  8.0962e-11
Flow time = 267s, time step = 1335
1165 more time steps

Updating solution at time level N... done.
Injecting 1734 particle parcels with mass 2e-11 at t = 267

Advancing DPM injections ....
number tracked = 470137, escaped = 201, aborted = 0, trapped = 1499, evaporated = 0, incomplete = 0, incomplete_parallel = 0

  iter     time/iter
Volume Averaged Variable at (0.000000 0.100000 1.300000) is 0.000000e+00
  step  flow-time  volflow_or  volflow_in volflow_cor     temp_p1    temp_max pressure_or pressure_dif pressure_cor mass_balance heat_balance      dpm_p2      dpm_or     dpm_cor
  1336  2.6720e+02 -2.1069e+00  2.1019e+00 -1.0800e-01  2.9410e+02  3.6344e+02  4.8395e+00  5.0040e+00 -1.6447e-01  3.8150e-08  1.1514e-01  0.0000e+00  0.0000e+00  8.0969e-11
Flow time = 267.2s, time step = 1336
1164 more time steps

Updating solution at time level N... done.
Injecting 1734 particle parcels with mass 2e-11 at t = 267.2

Advancing DPM injections ....
number tracked = 470171, escaped = 199, aborted = 0, trapped = 1476, evaporated = 0, incomplete = 0, incomplete_parallel = 0

  iter     time/iter
Volume Averaged Variable at (0.000000 0.100000 1.300000) is 0.000000e+00
  step  flow-time  volflow_or  volflow_in volflow_cor     temp_p1    temp_max pressure_or pressure_dif pressure_cor mass_balance heat_balance      dpm_p2      dpm_or     dpm_cor
  1337  2.6740e+02 -2.1069e+00  2.1019e+00 -1.0800e-01  2.9410e+02  3.6344e+02  4.8395e+00  5.0040e+00 -1.6447e-01  3.8150e-08  1.1514e-01  0.0000e+00  0.0000e+00  8.0979e-11
Flow time = 267.4s, time step = 1337
1163 more time steps

Updating solution at time level N... done.
Injecting 1734 particle parcels with mass 2e-11 at t = 267.4

Advancing DPM injections ....
number tracked = 470230, escaped = 182, aborted = 0, trapped = 1534, evaporated = 0, incomplete = 0, incomplete_parallel = 0

  iter     time/iter
Volume Averaged Variable at (0.000000 0.100000 1.300000) is 0.000000e+00
  step  flow-time  volflow_or  volflow_in volflow_cor     temp_p1    temp_max pressure_or pressure_dif pressure_cor mass_balance heat_balance      dpm_p2      dpm_or     dpm_cor
  1338  2.6760e+02 -2.1069e+00  2.1019e+00 -1.0800e-01  2.9410e+02  3.6344e+02  4.8395e+00  5.0040e+00 -1.6447e-01  3.8150e-08  1.1514e-01  0.0000e+00  0.0000e+00  8.0982e-11
Flow time = 267.6s, time step = 1338
1162 more time steps

Updating solution at time level N... done.
Injecting 1734 particle parcels with mass 2e-11 at t = 267.6

Advancing DPM injections ....
number tracked = 470248, escaped = 209, aborted = 0, trapped = 1556, evaporated = 0, incomplete = 0, incomplete_parallel = 0

  iter     time/iter
Volume Averaged Variable at (0.000000 0.100000 1.300000) is 0.000000e+00
  step  flow-time  volflow_or  volflow_in volflow_cor     temp_p1    temp_max pressure_or pressure_dif pressure_cor mass_balance heat_balance      dpm_p2      dpm_or     dpm_cor
  1339  2.6780e+02 -2.1069e+00  2.1019e+00 -1.0800e-01  2.9410e+02  3.6344e+02  4.8395e+00  5.0040e+00 -1.6447e-01  3.8150e-08  1.1514e-01  0.0000e+00  0.0000e+00  8.0975e-11
Flow time = 267.8s, time step = 1339
1161 more time steps

Updating solution at time level N... done.
Injecting 1734 particle parcels with mass 2e-11 at t = 267.8

Advancing DPM injections ....
number tracked = 470217, escaped = 194, aborted = 0, trapped = 1497, evaporated = 0, incomplete = 0, incomplete_parallel = 0

  iter     time/iter
Volume Averaged Variable at (0.000000 0.100000 1.300000) is 0.000000e+00
/file/read-macros controlruntime.scm
Loading "././controlruntime.scm"
Done.

> 
  step  flow-time  volflow_or  volflow_in volflow_cor     temp_p1    temp_max pressure_or pressure_dif pressure_cor mass_balance heat_balance      dpm_p2      dpm_or     dpm_cor
  1340  2.6800e+02 -2.1069e+00  2.1019e+00 -1.0800e-01  2.9410e+02  3.6344e+02  4.8395e+00  5.0040e+00 -1.6447e-01  3.8150e-08  1.1514e-01  0.0000e+00  0.0000e+00  8.0985e-11
Flow time = 268s, time step = 1340
1160 more time steps

Updating solution at time level N... done.
Injecting 1734 particle parcels with mass 2e-11 at t = 268

Advancing DPM injections ....
number tracked = 470260, escaped = 164, aborted = 0, trapped = 1558, evaporated = 0, incomplete = 0, incomplete_parallel = 0

  iter     time/iter
Volume Averaged Variable at (0.000000 0.100000 1.300000) is 0.000000e+00
  step  flow-time  volflow_or  volflow_in volflow_cor     temp_p1    temp_max pressure_or pressure_dif pressure_cor mass_balance heat_balance      dpm_p2      dpm_or     dpm_cor
  1341  2.6820e+02 -2.1069e+00  2.1019e+00 -1.0800e-01  2.9410e+02  3.6344e+02  4.8395e+00  5.0040e+00 -1.6447e-01  3.8150e-08  1.1514e-01  0.0000e+00  0.0000e+00  8.0990e-11
Flow time = 268.2s, time step = 1341
1159 more time steps

Updating solution at time level N... done.
Injecting 1734 particle parcels with mass 2e-11 at t = 268.2

Advancing DPM injections ....
number tracked = 470272, escaped = 159, aborted = 0, trapped = 1519, evaporated = 0, incomplete = 0, incomplete_parallel = 0

  iter     time/iter
Volume Averaged Variable at (0.000000 0.100000 1.300000) is 0.000000e+00
  step  flow-time  volflow_or  volflow_in volflow_cor     temp_p1    temp_max pressure_or pressure_dif pressure_cor mass_balance heat_balance      dpm_p2      dpm_or     dpm_cor
  1342  2.6840e+02 -2.1069e+00  2.1019e+00 -1.0800e-01  2.9410e+02  3.6344e+02  4.8395e+00  5.0040e+00 -1.6447e-01  3.8150e-08  1.1514e-01  0.0000e+00  0.0000e+00  8.0996e-11
Flow time = 268.4s, time step = 1342
1158 more time steps

Updating solution at time level N... done.
Injecting 1734 particle parcels with mass 2e-11 at t = 268.4

Advancing DPM injections ....
number tracked = 470328, escaped = 186, aborted = 0, trapped = 1546, evaporated = 0, incomplete = 0, incomplete_parallel = 0

  iter     time/iter
Volume Averaged Variable at (0.000000 0.100000 1.300000) is 0.000000e+00
  step  flow-time  volflow_or  volflow_in volflow_cor     temp_p1    temp_max pressure_or pressure_dif pressure_cor mass_balance heat_balance      dpm_p2      dpm_or     dpm_cor
  1343  2.6860e+02 -2.1069e+00  2.1019e+00 -1.0800e-01  2.9410e+02  3.6344e+02  4.8395e+00  5.0040e+00 -1.6447e-01  3.8150e-08  1.1514e-01  0.0000e+00  0.0000e+00  8.0999e-11
Flow time = 268.6s, time step = 1343
1157 more time steps

Updating solution at time level N... done.
Injecting 1734 particle parcels with mass 2e-11 at t = 268.6

Advancing DPM injections ....
number tracked = 470330, escaped = 204, aborted = 0, trapped = 1536, evaporated = 0, incomplete = 0, incomplete_parallel = 0

  iter     time/iter
Volume Averaged Variable at (0.000000 0.100000 1.300000) is 0.000000e+00
  step  flow-time  volflow_or  volflow_in volflow_cor     temp_p1    temp_max pressure_or pressure_dif pressure_cor mass_balance heat_balance      dpm_p2      dpm_or     dpm_cor
  1344  2.6880e+02 -2.1069e+00  2.1019e+00 -1.0800e-01  2.9410e+02  3.6344e+02  4.8395e+00  5.0040e+00 -1.6447e-01  3.8150e-08  1.1514e-01  0.0000e+00  0.0000e+00  8.0999e-11
Flow time = 268.8s, time step = 1344
1156 more time steps

Updating solution at time level N... done.
Injecting 1734 particle parcels with mass 2e-11 at t = 268.8

Advancing DPM injections ....
number tracked = 470324, escaped = 194, aborted = 0, trapped = 1459, evaporated = 0, incomplete = 0, incomplete_parallel = 0

  iter     time/iter
Volume Averaged Variable at (0.000000 0.100000 1.300000) is 0.000000e+00
  step  flow-time  volflow_or  volflow_in volflow_cor     temp_p1    temp_max pressure_or pressure_dif pressure_cor mass_balance heat_balance      dpm_p2      dpm_or     dpm_cor
  1345  2.6900e+02 -2.1069e+00  2.1019e+00 -1.0800e-01  2.9410e+02  3.6344e+02  4.8395e+00  5.0040e+00 -1.6447e-01  3.8150e-08  1.1514e-01  0.0000e+00  0.0000e+00  8.1007e-11
Flow time = 269s, time step = 1345
1155 more time steps

Updating solution at time level N... done.
Injecting 1734 particle parcels with mass 2e-11 at t = 269

Advancing DPM injections ....
number tracked = 470405, escaped = 205, aborted = 0, trapped = 1567, evaporated = 0, incomplete = 0, incomplete_parallel = 0

  iter     time/iter
Volume Averaged Variable at (0.000000 0.100000 1.300000) is 0.000000e+00
  step  flow-time  volflow_or  volflow_in volflow_cor     temp_p1    temp_max pressure_or pressure_dif pressure_cor mass_balance heat_balance      dpm_p2      dpm_or     dpm_cor
  1346  2.6920e+02 -2.1069e+00  2.1019e+00 -1.0800e-01  2.9410e+02  3.6344e+02  4.8395e+00  5.0040e+00 -1.6447e-01  3.8150e-08  1.1514e-01  0.0000e+00  0.0000e+00  8.1004e-11
Flow time = 269.2s, time step = 1346
1154 more time steps

Updating solution at time level N... done.
Injecting 1734 particle parcels with mass 2e-11 at t = 269.2

Advancing DPM injections ....
number tracked = 470367, escaped = 181, aborted = 0, trapped = 1488, evaporated = 0, incomplete = 0, incomplete_parallel = 0

  iter     time/iter
Volume Averaged Variable at (0.000000 0.100000 1.300000) is 0.000000e+00
  step  flow-time  volflow_or  volflow_in volflow_cor     temp_p1    temp_max pressure_or pressure_dif pressure_cor mass_balance heat_balance      dpm_p2      dpm_or     dpm_cor
  1347  2.6940e+02 -2.1069e+00  2.1019e+00 -1.0800e-01  2.9410e+02  3.6344e+02  4.8395e+00  5.0040e+00 -1.6447e-01  3.8150e-08  1.1514e-01  0.0000e+00  0.0000e+00  8.1008e-11
Flow time = 269.4s, time step = 1347
1153 more time steps

Updating solution at time level N... done.
Injecting 1734 particle parcels with mass 2e-11 at t = 269.4

Advancing DPM injections ....
number tracked = 470432, escaped = 196, aborted = 0, trapped = 1506, evaporated = 0, incomplete = 0, incomplete_parallel = 0

  iter     time/iter
Volume Averaged Variable at (0.000000 0.100000 1.300000) is 0.000000e+00
  step  flow-time  volflow_or  volflow_in volflow_cor     temp_p1    temp_max pressure_or pressure_dif pressure_cor mass_balance heat_balance      dpm_p2      dpm_or     dpm_cor
  1348  2.6960e+02 -2.1069e+00  2.1019e+00 -1.0800e-01  2.9410e+02  3.6344e+02  4.8395e+00  5.0040e+00 -1.6447e-01  3.8150e-08  1.1514e-01  0.0000e+00  0.0000e+00  8.1015e-11
Flow time = 269.6s, time step = 1348
1152 more time steps

Updating solution at time level N... done.
Injecting 1734 particle parcels with mass 2e-11 at t = 269.6

Advancing DPM injections ....
number tracked = 470464, escaped = 198, aborted = 0, trapped = 1539, evaporated = 0, incomplete = 0, incomplete_parallel = 0
