/pdc/vol/ansys/19.1/v191/fluent/fluent19.1.0/bin/fluent -r19.1.0 3ddp -g -slurm -t 96 -mpi=ibmmpi -pib -i journal.jou
/pdc/vol/ansys/19.1/v191/fluent/fluent19.1.0/cortex/lnamd64/cortex.19.1.0 -f fluent -g -i journal.jou (fluent "3ddp -pinfiniband  -host -r19.1.0 -t96 -mpi=ibmmpi -path/pdc/vol/ansys/19.1/v191/fluent -ssh")
/pdc/vol/ansys/19.1/v191/fluent/fluent19.1.0/bin/fluent -r19.1.0 3ddp -pinfiniband -host -t96 -mpi=ibmmpi -path/pdc/vol/ansys/19.1/v191/fluent -ssh -cx t02n18.pdc.kth.se:36365:41747
Starting /pdc/vol/ansys/19.1/v191/fluent/fluent19.1.0/lnamd64/3ddp_host/fluent.19.1.0 host -cx t02n18.pdc.kth.se:36365:41747 "(list (rpsetvar (QUOTE parallel/function) "fluent 3ddp -flux -node -r19.1.0 -t96 -pinfiniband -mpi=ibmmpi -ssh") (rpsetvar (QUOTE parallel/rhost) "") (rpsetvar (QUOTE parallel/ruser) "") (rpsetvar (QUOTE parallel/nprocs_string) "96") (rpsetvar (QUOTE parallel/auto-spawn?) #t) (rpsetvar (QUOTE parallel/trace-level) 0) (rpsetvar (QUOTE parallel/remote-shell) 1) (rpsetvar (QUOTE parallel/path) "/pdc/vol/ansys/19.1/v191/fluent") (rpsetvar (QUOTE parallel/hostsfile) "") )"

              Welcome to ANSYS Fluent Release 19.1

              Copyright 1987-2018 ANSYS, Inc. All Rights Reserved.
              Unauthorized use, distribution or duplication is prohibited.
              This product is subject to U.S. laws governing export and re-export.
              For full Legal Notice, see documentation.

Build Time: Apr 09 2018 13:46:05 EDT  Build Id: 10123  
 

     --------------------------------------------------------------
     This is an academic version of ANSYS FLUENT. Usage of this product
     license is limited to the terms and conditions specified in your ANSYS
     license form, additional terms section.
     --------------------------------------------------------------
Host spawning Node 0 on machine "t02n18.pdc.kth.se" (unix).
/pdc/vol/ansys/19.1/v191/fluent/fluent19.1.0/bin/fluent -r19.1.0 3ddp -flux -node -t96 -pinfiniband -mpi=ibmmpi -ssh -mport 193.10.157.119:193.10.157.119:35485:0
-- srun ibmmpi launch --
Starting /pdc/vol/ansys/19.1/v191/fluent/fluent19.1.0/multiport/mpi/lnamd64/ibmmpi/bin/mpirun -e MPI_IBV_NO_FORK_SAFE=1 -e MPI_USE_MALLOPT_MMAP_MAX=0 -prot -IBV -e MPI_HASIC_IBV=1 -srun -n 96 /pdc/vol/ansys/19.1/v191/fluent/fluent19.1.0/lnamd64/3ddp_node/fluent_mpi.19.1.0 node -mpiw ibmmpi -pic infiniband -mport 193.10.157.119:193.10.157.119:35485:0
Host 0 -- ip 193.10.157.119 -- ranks 0 - 23
Host 1 -- ip 193.10.157.134 -- ranks 24 - 47
Host 2 -- ip 193.10.157.149 -- ranks 48 - 71
Host 3 -- ip 193.10.157.153 -- ranks 72 - 95

 host | 0    1    2    3
======|=====================
    0 : SHM  IBV  IBV  IBV
    1 : IBV  SHM  IBV  IBV
    2 : IBV  IBV  SHM  IBV
    3 : IBV  IBV  IBV  SHM

 Prot -  All Intra-node communication is: SHM
 Prot -  All Inter-node communication is: IBV


--------------------------------------------------------------------------------------
ID      Hostname           Core   O.S.      PID          Vendor                      
--------------------------------------------------------------------------------------
n72-95  t03n16.pdc.kth.se  24/48  Linux-64  13825-13848  Intel(R) Xeon(R) E5-2690 v3 
n48-71  t03n09.pdc.kth.se  24/48  Linux-64  2517-2540    Intel(R) Xeon(R) E5-2690 v3 
n24-47  t02n42.pdc.kth.se  24/48  Linux-64  38240-38263  Intel(R) Xeon(R) E5-2690 v3 
n0-23   t02n18.pdc.kth.se  24/48  Linux-64  38104-38127  Intel(R) Xeon(R) E5-2690 v3 
host    t02n18.pdc.kth.se         Linux-64  37913        Intel(R) Xeon(R) E5-2690 v3 

MPI Option Selected: ibmmpi
Selected system interconnect: InfiniBand
--------------------------------------------------------------------------------------


Posting ANSYS Product Improvement Program startup data
Done.

Reading journal file journal.jou...

> ;
;
file/read-case OR-COR.cas.gz

Multicore SMT processors detected. Processor affinity set!

Reading "\"| gunzip -c \\\"OR-COR.cas.gz\\\"\""...

Buffering for file scan...



 9386898 mixed cells, zone 73, binary.
 3946867 mixed cells, zone 74, binary.
Warning: reading 4 partition grid onto 96 compute node machine;
         will auto partition.
 9386898 cell partition ids, zone 73, 4 partitions, binary.
Warning: reading 4 partition grid onto 96 compute node machine;
         will auto partition.
 3946867 cell partition ids, zone 74, 4 partitions, binary.
19350142 mixed interior faces, zone 244, binary.
 8081244 mixed interior faces, zone 245, binary.
     574 mixed wall faces, zone 77, binary.
     574 mixed wall faces, zone  2, binary.
     574 mixed wall faces, zone 78, binary.
     574 mixed wall faces, zone  3, binary.
     574 mixed wall faces, zone 79, binary.
     574 mixed wall faces, zone  4, binary.
     574 mixed wall faces, zone 80, binary.
     574 mixed wall faces, zone  5, binary.
     574 mixed wall faces, zone 81, binary.
     574 mixed wall faces, zone  6, binary.
     898 mixed wall faces, zone 82, binary.
     898 mixed wall faces, zone  7, binary.
     574 mixed wall faces, zone 83, binary.
     574 mixed wall faces, zone  8, binary.
     574 mixed wall faces, zone 84, binary.
     574 mixed wall faces, zone  9, binary.
     574 mixed wall faces, zone 85, binary.
     574 mixed wall faces, zone 10, binary.
     574 mixed wall faces, zone 86, binary.
     574 mixed wall faces, zone 11, binary.
     574 mixed wall faces, zone 87, binary.
     574 mixed wall faces, zone 12, binary.
     574 mixed wall faces, zone 88, binary.
     574 mixed wall faces, zone 13, binary.
     574 mixed wall faces, zone 89, binary.
     574 mixed wall faces, zone 14, binary.
     572 mixed wall faces, zone 90, binary.
     572 mixed wall faces, zone 15, binary.
     574 mixed wall faces, zone 91, binary.
     574 mixed wall faces, zone 16, binary.
     572 mixed wall faces, zone 92, binary.
     572 mixed wall faces, zone 17, binary.
     574 mixed wall faces, zone 93, binary.
     574 mixed wall faces, zone 18, binary.
     572 mixed wall faces, zone 94, binary.
     572 mixed wall faces, zone 19, binary.
     574 mixed wall faces, zone 95, binary.
     574 mixed wall faces, zone 20, binary.
     572 mixed wall faces, zone 96, binary.
     572 mixed wall faces, zone 21, binary.
     574 mixed wall faces, zone 97, binary.
     574 mixed wall faces, zone 22, binary.
     572 mixed wall faces, zone 98, binary.
     572 mixed wall faces, zone 23, binary.
     574 mixed wall faces, zone 99, binary.
     574 mixed wall faces, zone 24, binary.
     572 mixed wall faces, zone 100, binary.
     572 mixed wall faces, zone 25, binary.
     574 mixed wall faces, zone 101, binary.
     574 mixed wall faces, zone 26, binary.
     574 mixed wall faces, zone 102, binary.
     574 mixed wall faces, zone 27, binary.
     572 mixed wall faces, zone 103, binary.
     572 mixed wall faces, zone 28, binary.
     572 mixed wall faces, zone 104, binary.
     572 mixed wall faces, zone 29, binary.
     574 mixed wall faces, zone 105, binary.
     574 mixed wall faces, zone 30, binary.
     572 mixed wall faces, zone 106, binary.
     572 mixed wall faces, zone 31, binary.
     574 mixed wall faces, zone 107, binary.
     574 mixed wall faces, zone 32, binary.
     574 mixed wall faces, zone 108, binary.
     574 mixed wall faces, zone 33, binary.
     574 mixed wall faces, zone 109, binary.
     574 mixed wall faces, zone 34, binary.
     574 mixed wall faces, zone 110, binary.
     574 mixed wall faces, zone 35, binary.
     574 mixed wall faces, zone 111, binary.
     574 mixed wall faces, zone 36, binary.
     574 mixed wall faces, zone 112, binary.
     574 mixed wall faces, zone 37, binary.
     574 mixed wall faces, zone 113, binary.
     574 mixed wall faces, zone 38, binary.
     574 mixed wall faces, zone 114, binary.
     574 mixed wall faces, zone 39, binary.
     574 mixed wall faces, zone 115, binary.
     574 mixed wall faces, zone 40, binary.
     574 mixed wall faces, zone 116, binary.
     574 mixed wall faces, zone 41, binary.
     574 mixed wall faces, zone 117, binary.
     574 mixed wall faces, zone 42, binary.
     574 mixed wall faces, zone 118, binary.
     574 mixed wall faces, zone 43, binary.
     574 mixed wall faces, zone 119, binary.
     574 mixed wall faces, zone 44, binary.
     574 mixed wall faces, zone 120, binary.
     574 mixed wall faces, zone 45, binary.
     574 mixed wall faces, zone 121, binary.
     574 mixed wall faces, zone 46, binary.
     574 mixed wall faces, zone 122, binary.
     574 mixed wall faces, zone 47, binary.
     574 mixed wall faces, zone 123, binary.
     574 mixed wall faces, zone 48, binary.
     574 mixed wall faces, zone 124, binary.
     574 mixed wall faces, zone 49, binary.
     976 mixed wall faces, zone 125, binary.
     976 mixed wall faces, zone 50, binary.
     574 mixed wall faces, zone 126, binary.
     574 mixed wall faces, zone 51, binary.
   42971 triangular velocity-inlet faces, zone 127, binary.
    3750 triangular pressure-outlet faces, zone 128, binary.
    1734 triangular velocity-inlet faces, zone 129, binary.
    1204 triangular pressure-outlet faces, zone 130, binary.
  193965 triangular wall faces, zone 131, binary.
   98169 triangular wall faces, zone 132, binary.
    7945 triangular wall faces, zone 133, binary.
   37956 triangular wall faces, zone 134, binary.
    1826 triangular wall faces, zone 135, binary.
     916 triangular wall faces, zone 136, binary.
    6079 triangular wall faces, zone 137, binary.
     117 triangular wall faces, zone 138, binary.
     574 shadow face pairs, binary. 
     574 shadow face pairs, binary. 
     574 shadow face pairs, binary. 
     574 shadow face pairs, binary. 
     574 shadow face pairs, binary. 
     898 shadow face pairs, binary. 
     574 shadow face pairs, binary. 
     574 shadow face pairs, binary. 
     574 shadow face pairs, binary. 
     574 shadow face pairs, binary. 
     574 shadow face pairs, binary. 
     574 shadow face pairs, binary. 
     574 shadow face pairs, binary. 
     572 shadow face pairs, binary. 
     574 shadow face pairs, binary. 
     572 shadow face pairs, binary. 
     574 shadow face pairs, binary. 
     572 shadow face pairs, binary. 
     574 shadow face pairs, binary. 
     572 shadow face pairs, binary. 
     574 shadow face pairs, binary. 
     572 shadow face pairs, binary. 
     574 shadow face pairs, binary. 
     572 shadow face pairs, binary. 
     574 shadow face pairs, binary. 
     574 shadow face pairs, binary. 
     572 shadow face pairs, binary. 
     572 shadow face pairs, binary. 
     574 shadow face pairs, binary. 
     572 shadow face pairs, binary. 
     574 shadow face pairs, binary. 
     574 shadow face pairs, binary. 
     574 shadow face pairs, binary. 
     574 shadow face pairs, binary. 
     574 shadow face pairs, binary. 
     574 shadow face pairs, binary. 
     574 shadow face pairs, binary. 
     574 shadow face pairs, binary. 
     574 shadow face pairs, binary. 
     574 shadow face pairs, binary. 
     574 shadow face pairs, binary. 
     574 shadow face pairs, binary. 
     574 shadow face pairs, binary. 
     574 shadow face pairs, binary. 
     574 shadow face pairs, binary. 
     574 shadow face pairs, binary. 
     574 shadow face pairs, binary. 
     574 shadow face pairs, binary. 
     976 shadow face pairs, binary. 
     574 shadow face pairs, binary. 
 3001709 nodes, binary.
3001709 node flags, binary.
   80802 "cor-inlet-profile" point-profile points, x, y, z, u, v, w.
  348480 "or-inlet-profile" point-profile points, x, y, z, u, v, w.

Building...
     mesh
	auto partitioning mesh by Metis (fast),
	distributing mesh
		pairs..................................................,
		parts..................................................,
		faces..................................................,
		nodes..................................................,
		shadow nodes..................................................,
		cells..................................................,
        inter-node communication reduction using architecture-aware remapping: 77%
        bandwidth reduction using Reverse Cuthill-McKee: 140133/2911 = 48.1391
     materials,
     interface,
     domains,
	mixture
     zones,
	or_equip
	or_lamp_heat
	or_lamp_wall
	or_persons
	or_table
	cor_wall
	or_wall
	cor_outlet
	cor_inlet
	or_inlet
	interior-cor
	interior-or
	xdoor-d01
	xdoor-d01-shadow
	xdoor-d02
	xdoor-d02-shadow
	xdoor-d03
	xdoor-d03-shadow
	xdoor-d04
	xdoor-d04-shadow
	xdoor-d05
	xdoor-d05-shadow
	xdoor-d06
	xdoor-d06-shadow
	xdoor-d07
	xdoor-d07-shadow
	xdoor-d08
	xdoor-d08-shadow
	xdoor-d09
	xdoor-d09-shadow
	xdoor-d10
	xdoor-d10-shadow
	xdoor-d11
	xdoor-d11-shadow
	xdoor-d12
	xdoor-d12-shadow
	xdoor-d13
	xdoor-d13-shadow
	xdoor-d14
	xdoor-d14-shadow
	xdoor-d15
	xdoor-d15-shadow
	xdoor-d16
	xdoor-d16-shadow
	xdoor-d17
	xdoor-d17-shadow
	xdoor-d18
	xdoor-d18-shadow
	xdoor-d19
	xdoor-d19-shadow
	xdoor-d20
	xdoor-d20-shadow
	xdoor-d21
	xdoor-d21-shadow
	xdoor-d22
	xdoor-d22-shadow
	xdoor-d23
	xdoor-d23-shadow
	xdoor-d24
	xdoor-d24-shadow
	xdoor-d25
	xdoor-d25-shadow
	xdoor-d26
	xdoor-d26-shadow
	xdoor-d27
	xdoor-d27-shadow
	xdoor-d28
	xdoor-d28-shadow
	xdoor-d29
	xdoor-d29-shadow
	xdoor-d30
	xdoor-d30-shadow
	xdoor-d31
	xdoor-d31-shadow
	xdoor-d32
	xdoor-d32-shadow
	xdoor-d33
	xdoor-d33-shadow
	xdoor-d34
	xdoor-d34-shadow
	xdoor-d35
	xdoor-d35-shadow
	xdoor-d36
	xdoor-d36-shadow
	xdoor-d37
	xdoor-d37-shadow
	xdoor-d38
	xdoor-d38-shadow
	xdoor-d39
	xdoor-d39-shadow
	xdoor-d40
	xdoor-d40-shadow
	xdoor-d41
	xdoor-d41-shadow
	xdoor-d42
	xdoor-d42-shadow
	xdoor-d43
	xdoor-d43-shadow
	xdoor-d44
	xdoor-d44-shadow
	xdoor-d45
	xdoor-d45-shadow
	xdoor-d46
	xdoor-d46-shadow
	xdoor-d47
	xdoor-d47-shadow
	xdoor-d48
	xdoor-d48-shadow
	xdoor-d49
	xdoor-d49-shadow
	xdoor-d50
	xdoor-d50-shadow
	or_outlet
	sampler
	cor
	or
     parallel,
Done.

> ; file/read-data OR-COR.dat.gz
;
;
; 
;
; solve/set/under-relaxation pressure 0.7 mom 0.3 temperature 1.0  k 0.8  epsilon 0.8
;
solve/monitors/residual/convergence-criteria 1e-5 , , , , , , , invalid command [,]
, , , , , ;

> ;
;
; define/boundary-conditions/outlet-vent , , , , , , , , , , , , , , ,   5.0
;
;
;
file/auto-save/case-frequency if-case-is-modified

> file/auto-save/data-frequency 1000

> file/auto-save/root-name OR-COR.gz

> ;
;
;
;
; solve/initialize/initialize-flow
solve/initialize/hyb-initialization

Initialize using the hybrid initialization method.

Checking case topology... 
-This case has both inlets & outlets 
-Pressure information is not available at the boundaries.
 Case will be initialized with constant pressure

	iter		scalar-0

	1		1.000000e+00
	2		1.821935e-04
	3		3.060288e-05
	4		1.178015e-05
	5		2.977154e-06
	6		9.842371e-07
	7		3.164122e-07
	8		1.205398e-07
	9		4.947776e-08
	10		2.817009e-08

Hybrid initialization is done.

> solve/initialize/fmg-initialization yes
Creating multigrid levels... 
 Grid Level  0: 13333765 cells, 27886834 faces, 3001709 nodes; 120 clusters
 Grid Level  1: 488187 cells, 9007821 faces, 3001709 nodes; 120 clusters
 Grid Level  1: 488187 cells, 2974140 faces,      0 nodes
 Grid Level  2:  94081 cells, 6362503 faces, 3001709 nodes; 120 clusters
 Grid Level  2:  94081 cells, 705438 faces,      0 nodes
 Grid Level  3:  22761 cells, 4850341 faces, 3001709 nodes; 120 clusters
 Grid Level  3:  22761 cells, 191658 faces,      0 nodes
 Grid Level  4:   6009 cells, 3744189 faces, 3001709 nodes; 120 clusters
 Grid Level  4:   6009 cells,  55593 faces,      0 nodes
 Grid Level  5:   1655 cells, 2847793 faces, 3001709 nodes; 120 clusters
 Grid Level  5:   1655 cells,  16885 faces,      0 nodes
Done.


FMG: Converge FAS on level 5


FMG: Converge FAS on level 4


FMG: Converge FAS on level 3


FMG: Converge FAS on level 2


FMG: Converge FAS on level 1
0.
 reversed flow in 1204 faces on pressure-outlet 130.
->1.->2.->3.->4.->5.<<<<<

FMG: Initialize flow for Segregated solution.. . end 


> ;
;
;
;
solve/iterate 6000
  iter  continuity  x-velocity  y-velocity  z-velocity      energy           k     epsilon  volflow_in      dpm_p2    temp_max     temp_p1     dpm_cor      dpm_or  volflow_co  volflow_or  pressure_c  pressure_o  heat_balan  mass_balan  pressure_d     time/iter

 reversed flow in 1204 faces on pressure-outlet 130. 
     1  1.0000e+00  5.7165e-03  7.3316e-03  9.2615e-03  1.0744e-06  6.7914e-03  3.1565e-02  2.1019e+00  0.0000e+00  3.2349e+02  2.9643e+02  0.0000e+00  0.0000e+00  1.0245e+00 -1.6307e+00  1.0515e+03  1.3929e+01 -2.1590e+03  1.9127e+00 -1.0376e+03  6:02:11 5999

 reversed flow in 947 faces on pressure-outlet 130. 
     2  1.0000e+00  1.9514e-02  3.4956e-02  3.9493e-02  4.5900e-06  5.9485e-03  2.7730e-02  2.1019e+00  0.0000e+00  3.2795e+02  2.9669e+02  0.0000e+00  0.0000e+00 -1.4595e+00 -2.3871e+00  9.4602e+02  1.2192e+02  3.4711e+03 -1.9425e+00 -8.2410e+02  5:30:26 5998

 reversed flow in 652 faces on pressure-outlet 130. 
     3  5.2794e-01  1.6034e-02  3.5555e-02  3.7070e-02  6.3752e-07  5.4151e-03  2.4401e-02  2.1019e+00  0.0000e+00  3.3761e+02  2.9705e+02  0.0000e+00  0.0000e+00 -1.4425e+00 -1.7570e+00  3.1939e+02 -7.3756e+01 -1.1441e+02 -1.1644e+00 -3.9315e+02  5:06:08 5997

 reversed flow in 550 faces on pressure-outlet 130. 
     4  4.0171e-01  1.0253e-02  3.1110e-02  2.4526e-02  8.1071e-07  5.2292e-03  2.4498e-02  2.1019e+00  0.0000e+00  3.4502e+02  2.9709e+02  0.0000e+00  0.0000e+00 -4.1311e-01 -2.2232e+00 -6.3122e+01  4.1879e+01  7.4187e+02 -5.0053e-01  1.0500e+02  4:44:45 5996

 reversed flow in 708 faces on pressure-outlet 130. 
     5  4.0642e-01  6.2936e-03  1.3812e-02  1.2082e-02  2.7933e-07  5.1082e-03  2.3975e-02  2.1019e+00  0.0000e+00  3.5122e+02  2.9706e+02  0.0000e+00  0.0000e+00 -1.4583e-01 -2.0739e+00 -5.3540e+01 -5.5525e+00 -3.3628e+02 -3.7221e-03  4.7988e+01  4:30:36 5995

 reversed flow in 718 faces on pressure-outlet 130. 
     6  3.7095e-01  4.2626e-03  4.7234e-03  5.6702e-03  2.8578e-07  5.0368e-03  2.2817e-02  2.1019e+00  0.0000e+00  3.5828e+02  2.9707e+02  0.0000e+00  0.0000e+00  2.1686e-03 -2.0473e+00 -4.0902e+01 -5.5757e+00 -5.8539e+02  2.0380e-01  3.5326e+01  4:16:02 5994

 reversed flow in 709 faces on pressure-outlet 130. 
     7  2.1750e-01  2.9407e-03  3.8087e-03  4.1695e-03  1.9559e-07  5.0098e-03  2.1328e-02  2.1019e+00  0.0000e+00  3.6254e+02  2.9702e+02  0.0000e+00  0.0000e+00 -8.5387e-03 -2.1507e+00 -1.1510e+01  1.7811e+01 -4.7486e+01  6.7013e-02  2.9322e+01  4:02:22 5993

 reversed flow in 689 faces on pressure-outlet 130. 
     8  1.4414e-01  2.2438e-03  4.3193e-03  3.6807e-03  2.0009e-07  5.0164e-03  1.9723e-02  2.1019e+00  0.0000e+00  3.6752e+02  2.9698e+02  0.0000e+00  0.0000e+00 -6.8365e-02 -2.0913e+00  2.8705e+00  1.0564e+00 -2.1493e+02  6.7031e-02 -1.8141e+00  3:51:29 5992

 reversed flow in 662 faces on pressure-outlet 130. 
     9  9.5889e-02  1.9708e-03  4.0416e-03  3.7664e-03  1.6832e-07  5.0190e-03  1.8399e-02  2.1019e+00  0.0000e+00  3.7161e+02  2.9693e+02  0.0000e+00  0.0000e+00 -1.1432e-01 -2.1134e+00  2.7453e+00  8.1445e+00 -1.4577e+01 -1.4277e-02  5.3992e+00  3:43:58 5991

 reversed flow in 623 faces on pressure-outlet 130. 
/file/read-macros controlruntime.scm
Loading "././controlruntime.scm"
Done.

> 
    10  6.9928e-02  2.1699e-03  3.3845e-03  3.8681e-03  1.8105e-07  5.0238e-03  1.7617e-02  2.1019e+00  0.0000e+00  3.7609e+02  2.9692e+02  0.0000e+00  0.0000e+00 -1.2906e-01 -2.1174e+00 -1.3515e+00  8.1196e+00  5.4474e+01 -3.6636e-02  9.4711e+00  3:36:02 5990

 reversed flow in 606 faces on pressure-outlet 130. 
    11  4.4716e-02  1.9292e-03  2.5424e-03  3.3073e-03  1.1224e-07  5.0261e-03  1.7461e-02  2.1019e+00  0.0000e+00  3.7887e+02  2.9689e+02  0.0000e+00  0.0000e+00 -1.2000e-01 -2.1156e+00 -5.9932e+00  7.0904e+00  4.4817e+01 -2.3695e-02  1.3084e+01  3:32:11 5989

 reversed flow in 590 faces on pressure-outlet 130. 

  iter  continuity  x-velocity  y-velocity  z-velocity      energy           k     epsilon  volflow_in      dpm_p2    temp_max     temp_p1     dpm_cor      dpm_or  volflow_co  volflow_or  pressure_c  pressure_o  heat_balan  mass_balan  pressure_d     time/iter
    12  3.3826e-02  1.5968e-03  1.9088e-03  2.7449e-03  1.2258e-07  5.0342e-03  1.7621e-02  2.1019e+00  0.0000e+00  3.8128e+02  2.9688e+02  0.0000e+00  0.0000e+00 -1.0572e-01 -2.1108e+00 -6.3620e+00  6.0733e+00  1.5569e+01 -1.0614e-03  1.2435e+01  3:26:59 5988

 reversed flow in 576 faces on pressure-outlet 130. 
    13  4.0878e-02  1.2801e-03  1.4826e-03  2.0904e-03  5.8455e-08  5.0407e-03  1.8124e-02  2.1019e+00  0.0000e+00  3.8375e+02  2.9687e+02  0.0000e+00  0.0000e+00 -1.0566e-01 -2.1084e+00 -4.2951e+00  5.8336e+00  1.3932e+00  1.8952e-03  1.0129e+01  3:24:56 5987

 reversed flow in 555 faces on pressure-outlet 130. 
    14  2.8166e-02  1.1550e-03  1.3823e-03  1.9832e-03  8.3947e-08  5.0388e-03  1.8477e-02  2.1019e+00  0.0000e+00  3.8626e+02  2.9686e+02  0.0000e+00  0.0000e+00 -1.0877e-01 -2.1085e+00 -4.3677e+00  6.0794e+00  1.1900e-01 -1.8624e-03  1.0447e+01  3:20:57 5986

 reversed flow in 534 faces on pressure-outlet 130. 
    15  1.8275e-02  1.0576e-03  1.2549e-03  1.8880e-03  5.7612e-08  5.0373e-03  1.8626e-02  2.1019e+00  0.0000e+00  3.8742e+02  2.9685e+02  0.0000e+00  0.0000e+00 -1.0979e-01 -2.1091e+00 -5.3424e+00  6.2925e+00  1.4712e+00 -3.8600e-03  1.1635e+01  3:18:30 5985

 reversed flow in 515 faces on pressure-outlet 130. 
    16  1.3161e-02  9.9046e-04  1.1538e-03  1.8083e-03  6.2512e-08  5.0262e-03  1.8743e-02  2.1019e+00  0.0000e+00  3.8863e+02  2.9684e+02  0.0000e+00  0.0000e+00 -1.1007e-01 -2.1090e+00 -6.0400e+00  6.2775e+00 -6.8313e-02 -4.0895e-03  1.2318e+01  3:19:40 5984

 reversed flow in 494 faces on pressure-outlet 130. 
    17  1.1086e-02  9.4806e-04  1.1033e-03  1.7565e-03  5.7400e-08  5.0205e-03  1.8790e-02  2.1019e+00  0.0000e+00  3.8984e+02  2.9683e+02  0.0000e+00  0.0000e+00 -1.0964e-01 -2.1091e+00 -6.6395e+00  6.2988e+00  1.6128e-01 -3.6001e-03  1.2938e+01  3:17:13 5983

 reversed flow in 475 faces on pressure-outlet 130. 
    18  9.9620e-03  9.1659e-04  1.0714e-03  1.7149e-03  5.2935e-08  5.0205e-03  1.8903e-02  2.1019e+00  0.0000e+00  3.9131e+02  2.9682e+02  0.0000e+00  0.0000e+00 -1.1010e-01 -2.1065e+00 -6.7906e+00  5.7954e+00 -1.1669e+01 -1.0500e-03  1.2586e+01  3:15:00 5982

 reversed flow in 462 faces on pressure-outlet 130. 
    19  8.9999e-03  8.9158e-04  1.0517e-03  1.6858e-03  5.3676e-08  5.0035e-03  1.8765e-02  2.1019e+00  0.0000e+00  3.9270e+02  2.9681e+02  0.0000e+00  0.0000e+00 -1.1028e-01 -2.1083e+00 -6.9384e+00  6.3088e+00 -1.4310e+00 -3.4202e-03  1.3247e+01  3:13:20 5981

 reversed flow in 451 faces on pressure-outlet 130. 
/file/read-macros controlruntime.scm
Loading "././controlruntime.scm"
Done.

> 
    20  8.1072e-03  8.6997e-04  1.0268e-03  1.6591e-03  4.9729e-08  4.9918e-03  1.8686e-02  2.1019e+00  0.0000e+00  3.9395e+02  2.9680e+02  0.0000e+00  0.0000e+00 -1.1020e-01 -2.1074e+00 -7.0815e+00  6.0961e+00 -5.8831e+00 -2.2436e-03  1.3178e+01  3:11:29 5980

 reversed flow in 452 faces on pressure-outlet 130. 
    21  7.4476e-03  8.5298e-04  1.0033e-03  1.6355e-03  4.8823e-08  4.9736e-03  1.8703e-02  2.1019e+00  0.0000e+00  3.9503e+02  2.9679e+02  0.0000e+00  0.0000e+00 -1.0981e-01 -2.1078e+00 -7.2393e+00  6.2121e+00 -3.7828e+00 -2.2807e-03  1.3451e+01  3:09:43 5979

 reversed flow in 434 faces on pressure-outlet 130. 
    22  6.9546e-03  8.3754e-04  9.8621e-04  1.6143e-03  4.6256e-08  4.9550e-03  1.8593e-02  2.1019e+00  0.0000e+00  3.9597e+02  2.9678e+02  0.0000e+00  0.0000e+00 -1.0909e-01 -2.1076e+00 -7.3357e+00  6.1814e+00 -4.7678e+00 -1.2570e-03  1.3517e+01  3:08:04 5978

 reversed flow in 435 faces on pressure-outlet 130. 

  iter  continuity  x-velocity  y-velocity  z-velocity      energy           k     epsilon  volflow_in      dpm_p2    temp_max     temp_p1     dpm_cor      dpm_or  volflow_co  volflow_or  pressure_c  pressure_o  heat_balan  mass_balan  pressure_d     time/iter
    23  6.5569e-03  8.2296e-04  9.7096e-04  1.5968e-03  4.5402e-08  4.9418e-03  1.8744e-02  2.1019e+00  0.0000e+00  3.9682e+02  2.9677e+02  0.0000e+00  0.0000e+00 -1.0812e-01 -2.1076e+00 -7.3817e+00  6.1909e+00 -5.4767e+00 -1.3604e-04  1.3573e+01  3:06:41 5977

 reversed flow in 436 faces on pressure-outlet 130. 
    24  6.2590e-03  8.1116e-04  9.5663e-04  1.5812e-03  4.4310e-08  4.9311e-03  1.9041e-02  2.1019e+00  0.0000e+00  3.9758e+02  2.9676e+02  0.0000e+00  0.0000e+00 -1.0683e-01 -2.1077e+00 -7.4133e+00  6.1936e+00 -6.6434e+00  1.3976e-03  1.3607e+01  3:05:17 5976

 reversed flow in 442 faces on pressure-outlet 130. 
    25  6.0421e-03  8.0075e-04  9.4451e-04  1.5685e-03  4.4103e-08  4.9146e-03  1.9161e-02  2.1019e+00  0.0000e+00  3.9819e+02  2.9675e+02  0.0000e+00  0.0000e+00 -1.0492e-01 -2.1077e+00 -7.3756e+00  6.1948e+00 -8.4787e+00  3.6434e-03  1.3570e+01  3:04:11 5975

 reversed flow in 457 faces on pressure-outlet 130. 
    26  5.8907e-03  7.9183e-04  9.3578e-04  1.5563e-03  4.2155e-08  4.8975e-03  1.9247e-02  2.1019e+00  0.0000e+00  3.9867e+02  2.9674e+02  0.0000e+00  0.0000e+00 -1.0344e-01 -2.1077e+00 -7.2997e+00  6.1920e+00 -1.0241e+01  5.4065e-03  1.3492e+01  3:07:23 5974

 reversed flow in 478 faces on pressure-outlet 130. 
    27  5.7795e-03  7.8380e-04  9.2544e-04  1.5477e-03  4.2421e-08  4.8875e-03  1.9527e-02  2.1019e+00  0.0000e+00  3.9901e+02  2.9674e+02  0.0000e+00  0.0000e+00 -1.0292e-01 -2.1077e+00 -7.2933e+00  6.1903e+00 -1.0817e+01  6.0208e-03  1.3484e+01  3:06:29 5973

 reversed flow in 486 faces on pressure-outlet 130. 
    28  5.6432e-03  7.7616e-04  9.1577e-04  1.5387e-03  4.1218e-08  4.8722e-03  1.9787e-02  2.1019e+00  0.0000e+00  3.9993e+02  2.9673e+02  0.0000e+00  0.0000e+00 -1.0186e-01 -2.1077e+00 -7.1193e+00  6.1866e+00 -1.2085e+01  7.2825e-03  1.3306e+01  3:05:00 5972

 reversed flow in 491 faces on pressure-outlet 130. 
    29  5.4563e-03  7.6858e-04  9.0970e-04  1.5307e-03  3.9922e-08  4.8629e-03  2.0156e-02  2.1019e+00  0.0000e+00  4.0099e+02  2.9672e+02  0.0000e+00  0.0000e+00 -1.0156e-01 -2.1076e+00 -6.9400e+00  6.1836e+00 -1.2806e+01  7.6387e-03  1.3124e+01  3:04:44 5971

 reversed flow in 502 faces on pressure-outlet 130. 
/file/read-macros controlruntime.scm
Loading "././controlruntime.scm"
Done.

> 
    30  5.3510e-03  7.6178e-04  9.0167e-04  1.5241e-03  3.9922e-08  4.8542e-03  2.0497e-02  2.1019e+00  0.0000e+00  4.0185e+02  2.9671e+02  0.0000e+00  0.0000e+00 -1.0203e-01 -2.1077e+00 -6.6444e+00  6.1801e+00 -1.2666e+01  7.0810e-03  1.2825e+01  3:07:51 5970

 reversed flow in 523 faces on pressure-outlet 130. 
    31  5.0791e-03  7.5648e-04  8.9595e-04  1.5168e-03  3.9574e-08  4.8511e-03  2.1013e-02  2.1019e+00  0.0000e+00  4.0249e+02  2.9670e+02  0.0000e+00  0.0000e+00 -1.0308e-01 -2.1077e+00 -6.4513e+00  6.1771e+00 -1.1831e+01  5.8322e-03  1.2628e+01  3:08:56 5969

 reversed flow in 533 faces on pressure-outlet 130. 
    32  4.8555e-03  7.5085e-04  8.8857e-04  1.5098e-03  3.9831e-08  4.8357e-03  2.1342e-02  2.1019e+00  0.0000e+00  4.0295e+02  2.9669e+02  0.0000e+00  0.0000e+00 -1.0423e-01 -2.1076e+00 -6.2740e+00  6.1734e+00 -1.0332e+01  4.4617e-03  1.2447e+01  3:06:50 5968

 reversed flow in 546 faces on pressure-outlet 130. 
    33  4.7180e-03  7.4576e-04  8.8262e-04  1.5037e-03  3.8323e-08  4.8305e-03  2.1761e-02  2.1019e+00  0.0000e+00  4.0320e+02  2.9669e+02  0.0000e+00  0.0000e+00 -1.0463e-01 -2.1076e+00 -6.0251e+00  6.1691e+00 -1.0126e+01  4.0012e-03  1.2194e+01  3:08:47 5967

 reversed flow in 563 faces on pressure-outlet 130. 

  iter  continuity  x-velocity  y-velocity  z-velocity      energy           k     epsilon  volflow_in      dpm_p2    temp_max     temp_p1     dpm_cor      dpm_or  volflow_co  volflow_or  pressure_c  pressure_o  heat_balan  mass_balan  pressure_d     time/iter
    34  4.5483e-03  7.4190e-04  8.7787e-04  1.4992e-03  3.8322e-08  4.8235e-03  2.1976e-02  2.1019e+00  0.0000e+00  4.0326e+02  2.9668e+02  0.0000e+00  0.0000e+00 -1.0494e-01 -2.1076e+00 -5.7636e+00  6.1658e+00 -9.9752e+00  3.6271e-03  1.1929e+01  3:10:15 5966

 reversed flow in 566 faces on pressure-outlet 130. 
    35  4.4205e-03  7.3802e-04  8.7355e-04  1.4937e-03  3.8141e-08  4.8189e-03  2.2269e-02  2.1019e+00  0.0000e+00  4.0312e+02  2.9667e+02  0.0000e+00  0.0000e+00 -1.0542e-01 -2.1076e+00 -5.5323e+00  6.1587e+00 -9.5388e+00  3.0750e-03  1.1691e+01  3:09:53 5965

 reversed flow in 582 faces on pressure-outlet 130. 
    36  4.3031e-03  7.3561e-04  8.6989e-04  1.4895e-03  3.8516e-08  4.8039e-03  2.2225e-02  2.1019e+00  0.0000e+00  4.0474e+02  2.9666e+02  0.0000e+00  0.0000e+00 -1.0590e-01 -2.1076e+00 -5.3545e+00  6.1600e+00 -8.4923e+00  2.4913e-03  1.1514e+01  3:11:12 5964

 reversed flow in 587 faces on pressure-outlet 130. 
    37  4.1907e-03  7.3234e-04  8.6481e-04  1.4834e-03  3.7176e-08  4.7935e-03  2.2118e-02  2.1019e+00  0.0000e+00  4.0673e+02  2.9665e+02  0.0000e+00  0.0000e+00 -1.0614e-01 -2.1076e+00 -5.1604e+00  6.1539e+00 -8.1011e+00  2.2130e-03  1.1314e+01  3:10:13 5963

 reversed flow in 587 faces on pressure-outlet 130. 
    38  4.0929e-03  7.2892e-04  8.6252e-04  1.4782e-03  3.7123e-08  4.7704e-03  2.1808e-02  2.1019e+00  0.0000e+00  4.0875e+02  2.9664e+02  0.0000e+00  0.0000e+00 -1.0617e-01 -2.1076e+00 -5.0178e+00  6.1534e+00 -8.0297e+00  2.1683e-03  1.1171e+01  3:07:50 5962

 reversed flow in 590 faces on pressure-outlet 130. 
    39  3.9727e-03  7.2488e-04  8.5823e-04  1.4720e-03  3.7097e-08  4.7655e-03  2.1731e-02  2.1019e+00  0.0000e+00  4.1068e+02  2.9663e+02  0.0000e+00  0.0000e+00 -1.0604e-01 -2.1076e+00 -4.9436e+00  6.1503e+00 -8.0453e+00  2.3254e-03  1.1094e+01  3:06:01 5961

 reversed flow in 597 faces on pressure-outlet 130. 
/file/read-macros controlruntime.scm
Loading "././controlruntime.scm"
Done.

> 
    40  3.8903e-03  7.2231e-04  8.5500e-04  1.4674e-03  3.6892e-08  4.7388e-03  2.1165e-02  2.1019e+00  0.0000e+00  4.1263e+02  2.9662e+02  0.0000e+00  0.0000e+00 -1.0596e-01 -2.1076e+00 -4.7498e+00  6.1460e+00 -8.0262e+00  2.4222e-03  1.0896e+01  3:05:25 5960

 reversed flow in 602 faces on pressure-outlet 130. 
    41  3.8324e-03  7.1921e-04  8.5166e-04  1.4614e-03  3.7224e-08  4.7130e-03  2.0546e-02  2.1019e+00  0.0000e+00  4.1408e+02  2.9661e+02  0.0000e+00  0.0000e+00 -1.0608e-01 -2.1076e+00 -4.6085e+00  6.1447e+00 -7.4579e+00  2.2845e-03  1.0753e+01  3:08:08 5959

 reversed flow in 611 faces on pressure-outlet 130. 
    42  3.7505e-03  7.1616e-04  8.4786e-04  1.4566e-03  3.6716e-08  4.6826e-03  1.9822e-02  2.1019e+00  0.0000e+00  4.1515e+02  2.9661e+02  0.0000e+00  0.0000e+00 -1.0616e-01 -2.1076e+00 -4.4850e+00  6.1395e+00 -6.9603e+00  2.2021e-03  1.0624e+01  3:06:29 5958

 reversed flow in 610 faces on pressure-outlet 130. 
    43  3.6870e-03  7.1261e-04  8.4425e-04  1.4509e-03  3.6193e-08  4.6558e-03  1.9194e-02  2.1019e+00  0.0000e+00  4.1614e+02  2.9660e+02  0.0000e+00  0.0000e+00 -1.0616e-01 -2.1076e+00 -4.4054e+00  6.1419e+00 -6.6551e+00  2.1729e-03  1.0547e+01  3:04:49 5957

 reversed flow in 613 faces on pressure-outlet 130. 
    44  3.6221e-03  7.0964e-04  8.4042e-04  1.4456e-03  3.5528e-08  4.6323e-03  1.8692e-02  2.1019e+00  0.0000e+00  4.1727e+02  2.9659e+02  0.0000e+00  0.0000e+00 -1.0609e-01 -2.1076e+00 -4.2928e+00  6.1349e+00 -7.0455e+00  2.2902e-03  1.0428e+01  3:03:44 5956

 reversed flow in 626 faces on pressure-outlet 130. 

  iter  continuity  x-velocity  y-velocity  z-velocity      energy           k     epsilon  volflow_in      dpm_p2    temp_max     temp_p1     dpm_cor      dpm_or  volflow_co  volflow_or  pressure_c  pressure_o  heat_balan  mass_balan  pressure_d     time/iter
    45  3.5894e-03  7.0698e-04  8.3738e-04  1.4414e-03  3.6245e-08  4.6035e-03  1.8082e-02  2.1019e+00  0.0000e+00  4.1855e+02  2.9658e+02  0.0000e+00  0.0000e+00 -1.0620e-01 -2.1076e+00 -4.1052e+00  6.1397e+00 -6.7465e+00  2.1215e-03  1.0245e+01  3:02:50 5955

 reversed flow in 622 faces on pressure-outlet 130. 
    46  3.5680e-03  7.0420e-04  8.3348e-04  1.4372e-03  3.5172e-08  4.5720e-03  1.7450e-02  2.1019e+00  0.0000e+00  4.1963e+02  2.9657e+02  0.0000e+00  0.0000e+00 -1.0637e-01 -2.1076e+00 -3.9966e+00  6.1288e+00 -6.6991e+00  1.9673e-03  1.0125e+01  3:06:06 5954

 reversed flow in 630 faces on pressure-outlet 130. 
    47  3.5115e-03  7.0125e-04  8.3017e-04  1.4324e-03  3.5241e-08  4.5401e-03  1.6826e-02  2.1019e+00  0.0000e+00  4.2044e+02  2.9656e+02  0.0000e+00  0.0000e+00 -1.0639e-01 -2.1076e+00 -3.8927e+00  6.1363e+00 -6.6147e+00  1.8905e-03  1.0029e+01  3:08:46 5953

 reversed flow in 627 faces on pressure-outlet 130. 
    48  3.4726e-03  6.9836e-04  8.2670e-04  1.4273e-03  3.5107e-08  4.5137e-03  1.6396e-02  2.1019e+00  0.0000e+00  4.2115e+02  2.9655e+02  0.0000e+00  0.0000e+00 -1.0625e-01 -2.1076e+00 -3.8100e+00  6.1261e+00 -7.0322e+00  2.0948e-03  9.9361e+00  3:07:47 5952

 reversed flow in 629 faces on pressure-outlet 130. 
    49  3.4450e-03  6.9616e-04  8.2409e-04  1.4234e-03  3.4781e-08  4.4860e-03  1.5906e-02  2.1019e+00  0.0000e+00  4.2175e+02  2.9654e+02  0.0000e+00  0.0000e+00 -1.0632e-01 -2.1076e+00 -3.6454e+00  6.1321e+00 -6.7610e+00  1.9805e-03  9.7775e+00  3:05:56 5951

 reversed flow in 641 faces on pressure-outlet 130. 
/file/read-macros controlruntime.scm
Loading "././controlruntime.scm"
Done.

> 
    50  3.4259e-03  6.9341e-04  8.2097e-04  1.4196e-03  3.4461e-08  4.4549e-03  1.5359e-02  2.1019e+00  0.0000e+00  4.2228e+02  2.9654e+02  0.0000e+00  0.0000e+00 -1.0639e-01 -2.1076e+00 -3.5056e+00  6.1216e+00 -6.8578e+00  1.9418e-03  9.6272e+00  3:04:32 5950

 reversed flow in 643 faces on pressure-outlet 130. 
    51  3.3817e-03  6.9100e-04  8.1805e-04  1.4150e-03  3.4262e-08  4.4304e-03  1.4977e-02  2.1019e+00  0.0000e+00  4.2274e+02  2.9653e+02  0.0000e+00  0.0000e+00 -1.0645e-01 -2.1076e+00 -3.3765e+00  6.1279e+00 -6.4514e+00  1.8194e-03  9.5043e+00  3:03:32 5949

 reversed flow in 653 faces on pressure-outlet 130. 
    52  3.3508e-03  6.8881e-04  8.1484e-04  1.4108e-03  3.3847e-08  4.4025e-03  1.4551e-02  2.1019e+00  0.0000e+00  4.2312e+02  2.9652e+02  0.0000e+00  0.0000e+00 -1.0652e-01 -2.1076e+00 -3.2401e+00  6.1177e+00 -6.5142e+00  1.7838e-03  9.3578e+00  3:02:27 5948

 reversed flow in 659 faces on pressure-outlet 130. 
    53  3.3229e-03  6.8643e-04  8.1182e-04  1.4064e-03  3.3606e-08  4.3768e-03  1.4190e-02  2.1019e+00  0.0000e+00  4.2342e+02  2.9651e+02  0.0000e+00  0.0000e+00 -1.0653e-01 -2.1076e+00 -3.1334e+00  6.1245e+00 -6.3063e+00  1.7350e-03  9.2579e+00  3:02:09 5947

 reversed flow in 667 faces on pressure-outlet 130. 
    54  3.2903e-03  6.8445e-04  8.0890e-04  1.4025e-03  3.3249e-08  4.3494e-03  1.3777e-02  2.1019e+00  0.0000e+00  4.2363e+02  2.9650e+02  0.0000e+00  0.0000e+00 -1.0657e-01 -2.1076e+00 -3.0236e+00  6.1160e+00 -6.4128e+00  1.7163e-03  9.1396e+00  3:01:16 5946

 reversed flow in 671 faces on pressure-outlet 130. 
    55  3.2608e-03  6.8229e-04  8.0620e-04  1.3986e-03  3.3001e-08  4.3276e-03  1.3488e-02  2.1019e+00  0.0000e+00  4.2376e+02  2.9649e+02  0.0000e+00  0.0000e+00 -1.0658e-01 -2.1076e+00 -2.9277e+00  6.1199e+00 -6.2818e+00  1.6791e-03  9.0476e+00  3:00:35 5945

 reversed flow in 674 faces on pressure-outlet 130. 

  iter  continuity  x-velocity  y-velocity  z-velocity      energy           k     epsilon  volflow_in      dpm_p2    temp_max     temp_p1     dpm_cor      dpm_or  volflow_co  volflow_or  pressure_c  pressure_o  heat_balan  mass_balan  pressure_d     time/iter
    56  3.2404e-03  6.8018e-04  8.0378e-04  1.3953e-03  3.3197e-08  4.3044e-03  1.3206e-02  2.1019e+00  0.0000e+00  4.2383e+02  2.9648e+02  0.0000e+00  0.0000e+00 -1.0660e-01 -2.1076e+00 -2.8196e+00  6.1140e+00 -5.9661e+00  1.6723e-03  8.9336e+00  3:04:02 5944

 reversed flow in 684 faces on pressure-outlet 130. 
    57  3.2207e-03  6.7821e-04  8.0130e-04  1.3922e-03  3.1945e-08  4.2786e-03  1.2872e-02  2.1019e+00  0.0000e+00  4.2385e+02  2.9648e+02  0.0000e+00  0.0000e+00 -1.0664e-01 -2.1076e+00 -2.7007e+00  6.1156e+00 -5.8634e+00  1.6155e-03  8.8163e+00  3:03:44 5943

 turbulent viscosity limited to viscosity ratio of 1.000000e+04 in 1 cells 

 reversed flow in 691 faces on pressure-outlet 130. 
    58  3.1990e-03  6.7622e-04  7.9805e-04  1.3886e-03  3.1976e-08  4.2536e-03  1.2545e-02  2.1019e+00  0.0000e+00  4.2382e+02  2.9647e+02  0.0000e+00  0.0000e+00 -1.0674e-01 -2.1076e+00 -2.5979e+00  6.1120e+00 -5.8684e+00  1.4998e-03  8.7099e+00  3:03:44 5942

 turbulent viscosity limited to viscosity ratio of 1.000000e+04 in 1 cells 

 reversed flow in 697 faces on pressure-outlet 130. 
    59  3.1823e-03  6.7409e-04  7.9493e-04  1.3849e-03  3.1650e-08  4.2301e-03  1.2251e-02  2.1019e+00  0.0000e+00  4.2375e+02  2.9646e+02  0.0000e+00  0.0000e+00 -1.0672e-01 -2.1076e+00 -2.5306e+00  6.1123e+00 -5.8934e+00  1.5150e-03  8.6428e+00  3:03:02 5941

 turbulent viscosity limited to viscosity ratio of 1.000000e+04 in 1 cells 

 reversed flow in 702 faces on pressure-outlet 130. 
/file/read-macros controlruntime.scm
Loading "././controlruntime.scm"
Done.

> 
    60  3.1687e-03  6.7245e-04  7.9233e-04  1.3815e-03  3.1366e-08  4.2063e-03  1.1945e-02  2.1019e+00  0.0000e+00  4.2364e+02  2.9645e+02  0.0000e+00  0.0000e+00 -1.0664e-01 -2.1076e+00 -2.4487e+00  6.1098e+00 -6.0584e+00  1.6183e-03  8.5585e+00  3:02:01 5940

 turbulent viscosity limited to viscosity ratio of 1.000000e+04 in 1 cells 

 reversed flow in 710 faces on pressure-outlet 130. 
    61  3.1612e-03  6.7067e-04  7.8966e-04  1.3779e-03  3.1125e-08  4.1826e-03  1.1652e-02  2.1019e+00  0.0000e+00  4.2352e+02  2.9644e+02  0.0000e+00  0.0000e+00 -1.0664e-01 -2.1076e+00 -2.3620e+00  6.1093e+00 -6.0256e+00  1.6205e-03  8.4713e+00  3:01:20 5939

 turbulent viscosity limited to viscosity ratio of 1.000000e+04 in 1 cells 

 reversed flow in 718 faces on pressure-outlet 130. 
    62  3.1459e-03  6.6856e-04  7.8670e-04  1.3743e-03  3.0868e-08  4.1603e-03  1.1395e-02  2.1019e+00  0.0000e+00  4.2336e+02  2.9643e+02  0.0000e+00  0.0000e+00 -1.0667e-01 -2.1076e+00 -2.2881e+00  6.1073e+00 -5.9586e+00  1.5873e-03  8.3954e+00  3:00:36 5938

 turbulent viscosity limited to viscosity ratio of 1.000000e+04 in 1 cells 

 reversed flow in 721 faces on pressure-outlet 130. 
    63  3.1281e-03  6.6684e-04  7.8362e-04  1.3707e-03  3.0567e-08  4.1389e-03  1.1141e-02  2.1019e+00  0.0000e+00  4.2319e+02  2.9643e+02  0.0000e+00  0.0000e+00 -1.0667e-01 -2.1076e+00 -2.2220e+00  6.1066e+00 -5.8809e+00  1.5815e-03  8.3285e+00  3:00:07 5937

 turbulent viscosity limited to viscosity ratio of 1.000000e+04 in 1 cells 

 reversed flow in 727 faces on pressure-outlet 130. 
    64  3.1214e-03  6.6485e-04  7.8024e-04  1.3668e-03  3.0730e-08  4.1179e-03  1.0901e-02  2.1019e+00  0.0000e+00  4.2300e+02  2.9642e+02  0.0000e+00  0.0000e+00 -1.0661e-01 -2.1076e+00 -2.1599e+00  6.1048e+00 -5.6679e+00  1.6487e-03  8.2648e+00  2:59:28 5936

 turbulent viscosity limited to viscosity ratio of 1.000000e+04 in 1 cells 

 reversed flow in 730 faces on pressure-outlet 130. 
    65  3.1059e-03  6.6293e-04  7.7720e-04  1.3631e-03  2.9645e-08  4.0969e-03  1.0662e-02  2.1019e+00  0.0000e+00  4.2281e+02  2.9641e+02  0.0000e+00  0.0000e+00 -1.0660e-01 -2.1076e+00 -2.0952e+00  6.1039e+00 -5.7231e+00  1.6699e-03  8.1991e+00  2:59:15 5935

 turbulent viscosity limited to viscosity ratio of 1.000000e+04 in 1 cells 

 reversed flow in 732 faces on pressure-outlet 130. 
    66  3.0917e-03  6.6106e-04  7.7424e-04  1.3594e-03  3.0165e-08  4.0778e-03  1.0450e-02  2.1019e+00  0.0000e+00  4.2260e+02  2.9640e+02  0.0000e+00  0.0000e+00 -1.0659e-01 -2.1076e+00 -2.0340e+00  6.1023e+00 -5.5724e+00  1.6814e-03  8.1363e+00  3:03:47 5934

 turbulent viscosity limited to viscosity ratio of 1.000000e+04 in 1 cells 

 reversed flow in 739 faces on pressure-outlet 130. 

  iter  continuity  x-velocity  y-velocity  z-velocity      energy           k     epsilon  volflow_in      dpm_p2    temp_max     temp_p1     dpm_cor      dpm_or  volflow_co  volflow_or  pressure_c  pressure_o  heat_balan  mass_balan  pressure_d     time/iter
    67  3.0895e-03  6.5939e-04  7.7157e-04  1.3560e-03  2.9200e-08  4.0569e-03  1.0222e-02  2.1019e+00  0.0000e+00  4.2238e+02  2.9639e+02  0.0000e+00  0.0000e+00 -1.0660e-01 -2.1076e+00 -1.9738e+00  6.1012e+00 -5.6062e+00  1.6610e-03  8.0750e+00  3:03:57 5933

 turbulent viscosity limited to viscosity ratio of 1.000000e+04 in 1 cells 

 reversed flow in 740 faces on pressure-outlet 130. 
    68  3.0775e-03  6.5771e-04  7.6855e-04  1.3524e-03  2.9211e-08  4.0392e-03  1.0044e-02  2.1019e+00  0.0000e+00  4.2214e+02  2.9639e+02  0.0000e+00  0.0000e+00 -1.0664e-01 -2.1076e+00 -1.9294e+00  6.1000e+00 -5.6758e+00  1.6197e-03  8.0293e+00  3:02:42 5932

 turbulent viscosity limited to viscosity ratio of 1.000000e+04 in 1 cells 

 reversed flow in 745 faces on pressure-outlet 130. 
    69  3.0736e-03  6.5618e-04  7.6601e-04  1.3496e-03  2.9142e-08  4.0194e-03  9.8509e-03  2.1019e+00  0.0000e+00  4.2190e+02  2.9638e+02  0.0000e+00  0.0000e+00 -1.0667e-01 -2.1076e+00 -1.8758e+00  6.0988e+00 -5.6493e+00  1.5826e-03  7.9746e+00  3:03:23 5931

 turbulent viscosity limited to viscosity ratio of 1.000000e+04 in 1 cells 

 reversed flow in 749 faces on pressure-outlet 130. 
/file/read-macros controlruntime.scm
Loading "././controlruntime.scm"
Done.

> 
    70  3.0735e-03  6.5472e-04  7.6360e-04  1.3467e-03  2.8923e-08  4.0005e-03  9.6671e-03  2.1019e+00  0.0000e+00  4.2164e+02  2.9637e+02  0.0000e+00  0.0000e+00 -1.0671e-01 -2.1076e+00 -1.8321e+00  6.0976e+00 -5.5134e+00  1.5302e-03  7.9296e+00  3:02:17 5930

 turbulent viscosity limited to viscosity ratio of 1.000000e+04 in 1 cells 

 reversed flow in 749 faces on pressure-outlet 130. 
    71  3.0623e-03  6.5338e-04  7.6141e-04  1.3437e-03  2.8633e-08  3.9821e-03  9.5052e-03  2.1019e+00  0.0000e+00  4.2136e+02  2.9636e+02  0.0000e+00  0.0000e+00 -1.0671e-01 -2.1076e+00 -1.7935e+00  6.0964e+00 -5.4880e+00  1.5369e-03  7.8900e+00  3:01:25 5929

 turbulent viscosity limited to viscosity ratio of 1.000000e+04 in 1 cells 

 reversed flow in 753 faces on pressure-outlet 130. 
    72  3.0577e-03  6.5217e-04  7.5916e-04  1.3406e-03  2.8403e-08  3.9620e-03  9.3220e-03  2.1019e+00  0.0000e+00  4.2107e+02  2.9636e+02  0.0000e+00  0.0000e+00 -1.0672e-01 -2.1076e+00 -1.7529e+00  6.0953e+00 -5.4206e+00  1.5175e-03  7.8482e+00  3:02:49 5928

 turbulent viscosity limited to viscosity ratio of 1.000000e+04 in 1 cells 

 reversed flow in 745 faces on pressure-outlet 130. 
    73  3.0536e-03  6.5086e-04  7.5695e-04  1.3375e-03  2.8713e-08  3.9439e-03  9.1813e-03  2.1019e+00  0.0000e+00  4.2077e+02  2.9635e+02  0.0000e+00  0.0000e+00 -1.0673e-01 -2.1076e+00 -1.7328e+00  6.0944e+00 -5.1563e+00  1.5113e-03  7.8272e+00  3:01:41 5927

 turbulent viscosity limited to viscosity ratio of 1.000000e+04 in 1 cells 

 reversed flow in 746 faces on pressure-outlet 130. 
    74  3.0335e-03  6.4970e-04  7.5495e-04  1.3348e-03  2.8187e-08  3.9262e-03  9.0455e-03  2.1019e+00  0.0000e+00  4.2044e+02  2.9634e+02  0.0000e+00  0.0000e+00 -1.0673e-01 -2.1076e+00 -1.6923e+00  6.0929e+00 -4.9080e+00  1.5122e-03  7.7852e+00  3:00:47 5926

 turbulent viscosity limited to viscosity ratio of 1.000000e+04 in 1 cells 

 reversed flow in 744 faces on pressure-outlet 130. 
    75  3.0329e-03  6.4844e-04  7.5296e-04  1.3319e-03  2.7494e-08  3.9073e-03  8.8996e-03  2.1019e+00  0.0000e+00  4.2010e+02  2.9633e+02  0.0000e+00  0.0000e+00 -1.0677e-01 -2.1076e+00 -1.6558e+00  6.0914e+00 -5.0221e+00  1.4569e-03  7.7472e+00  3:02:03 5925

 turbulent viscosity limited to viscosity ratio of 1.000000e+04 in 1 cells 

 reversed flow in 742 faces on pressure-outlet 130. 
    76  3.0222e-03  6.4709e-04  7.5090e-04  1.3287e-03  2.7992e-08  3.8895e-03  8.7728e-03  2.1019e+00  0.0000e+00  4.1975e+02  2.9633e+02  0.0000e+00  0.0000e+00 -1.0682e-01 -2.1076e+00 -1.6267e+00  6.0907e+00 -4.8101e+00  1.3961e-03  7.7173e+00  3:06:05 5924

 turbulent viscosity limited to viscosity ratio of 1.000000e+04 in 1 cells 

 reversed flow in 736 faces on pressure-outlet 130. 
    77  3.0122e-03  6.4571e-04  7.4884e-04  1.3255e-03  2.7569e-08  3.8719e-03  8.6549e-03  2.1019e+00  0.0000e+00  4.1938e+02  2.9632e+02  0.0000e+00  0.0000e+00 -1.0684e-01 -2.1076e+00 -1.5955e+00  6.0895e+00 -4.6906e+00  1.3789e-03  7.6851e+00  3:04:31 5923

 reversed flow in 734 faces on pressure-outlet 130. 

  iter  continuity  x-velocity  y-velocity  z-velocity      energy           k     epsilon  volflow_in      dpm_p2    temp_max     temp_p1     dpm_cor      dpm_or  volflow_co  volflow_or  pressure_c  pressure_o  heat_balan  mass_balan  pressure_d     time/iter
    78  3.0131e-03  6.4428e-04  7.4682e-04  1.3219e-03  2.6973e-08  3.8546e-03  8.5479e-03  2.1019e+00  0.0000e+00  4.1899e+02  2.9631e+02  0.0000e+00  0.0000e+00 -1.0685e-01 -2.1076e+00 -1.5693e+00  6.0884e+00 -4.7473e+00  1.3649e-03  7.6578e+00  3:03:22 5922

 reversed flow in 728 faces on pressure-outlet 130. 
    79  3.0127e-03  6.4294e-04  7.4483e-04  1.3186e-03  2.7409e-08  3.8368e-03  8.4358e-03  2.1019e+00  0.0000e+00  4.1859e+02  2.9631e+02  0.0000e+00  0.0000e+00 -1.0684e-01 -2.1076e+00 -1.5411e+00  6.0871e+00 -4.7194e+00  1.3739e-03  7.6282e+00  3:02:10 5921

 reversed flow in 728 faces on pressure-outlet 130. 
/file/read-macros controlruntime.scm
Loading "././controlruntime.scm"
Done.

> 
    80  3.0126e-03  6.4174e-04  7.4302e-04  1.3152e-03  2.6973e-08  3.8191e-03  8.3285e-03  2.1019e+00  0.0000e+00  4.1817e+02  2.9630e+02  0.0000e+00  0.0000e+00 -1.0685e-01 -2.1075e+00 -1.5108e+00  6.0862e+00 -4.5504e+00  1.3694e-03  7.5970e+00  3:01:15 5920

 reversed flow in 724 faces on pressure-outlet 130. 
    81  3.0081e-03  6.4049e-04  7.4120e-04  1.3117e-03  2.6728e-08  3.8017e-03  8.2269e-03  2.1019e+00  0.0000e+00  4.1773e+02  2.9629e+02  0.0000e+00  0.0000e+00 -1.0688e-01 -2.1075e+00 -1.4852e+00  6.0853e+00 -4.4326e+00  1.3345e-03  7.5705e+00  3:02:57 5919

 reversed flow in 719 faces on pressure-outlet 130. 
    82  2.9910e-03  6.3941e-04  7.3959e-04  1.3082e-03  2.6237e-08  3.7848e-03  8.1360e-03  2.1019e+00  0.0000e+00  4.1727e+02  2.9628e+02  0.0000e+00  0.0000e+00 -1.0693e-01 -2.1075e+00 -1.4585e+00  6.0844e+00 -4.5743e+00  1.2692e-03  7.5429e+00  3:05:06 5918

 reversed flow in 713 faces on pressure-outlet 130. 
    83  2.9807e-03  6.3840e-04  7.3800e-04  1.3052e-03  2.6250e-08  3.7668e-03  8.0342e-03  2.1019e+00  0.0000e+00  4.1678e+02  2.9628e+02  0.0000e+00  0.0000e+00 -1.0697e-01 -2.1075e+00 -1.4349e+00  6.0837e+00 -4.6838e+00  1.2220e-03  7.5186e+00  3:03:25 5917

 reversed flow in 709 faces on pressure-outlet 130. 
    84  2.9573e-03  6.3739e-04  7.3643e-04  1.3016e-03  2.6163e-08  3.7494e-03  7.9420e-03  2.1019e+00  0.0000e+00  4.1629e+02  2.9627e+02  0.0000e+00  0.0000e+00 -1.0697e-01 -2.1075e+00 -1.4151e+00  6.0825e+00 -4.7217e+00  1.2282e-03  7.4976e+00  3:04:18 5916

 reversed flow in 699 faces on pressure-outlet 130. 
    85  2.9360e-03  6.3608e-04  7.3482e-04  1.2980e-03  2.5946e-08  3.7329e-03  7.8632e-03  2.1019e+00  0.0000e+00  4.1579e+02  2.9626e+02  0.0000e+00  0.0000e+00 -1.0694e-01 -2.1075e+00 -1.3947e+00  6.0815e+00 -4.7478e+00  1.2597e-03  7.4762e+00  3:04:43 5915

 reversed flow in 687 faces on pressure-outlet 130. 
    86  2.9263e-03  6.3495e-04  7.3327e-04  1.2945e-03  2.5741e-08  3.7157e-03  7.7804e-03  2.1019e+00  0.0000e+00  4.1527e+02  2.9626e+02  0.0000e+00  0.0000e+00 -1.0694e-01 -2.1075e+00 -1.3731e+00  6.0809e+00 -4.7410e+00  1.2643e-03  7.4539e+00  3:03:17 5914

 reversed flow in 676 faces on pressure-outlet 130. 
    87  2.9128e-03  6.3383e-04  7.3174e-04  1.2910e-03  2.5920e-08  3.6995e-03  7.7071e-03  2.1019e+00  0.0000e+00  4.1474e+02  2.9625e+02  0.0000e+00  0.0000e+00 -1.0693e-01 -2.1075e+00 -1.3563e+00  6.0798e+00 -4.4999e+00  1.2749e-03  7.4361e+00  3:05:15 5913

 reversed flow in 671 faces on pressure-outlet 130. 
    88  2.9152e-03  6.3262e-04  7.3023e-04  1.2876e-03  2.5112e-08  3.6832e-03  7.6356e-03  2.1019e+00  0.0000e+00  4.1418e+02  2.9624e+02  0.0000e+00  0.0000e+00 -1.0692e-01 -2.1075e+00 -1.3346e+00  6.0787e+00 -4.5645e+00  1.2806e-03  7.4133e+00  3:05:30 5912

 reversed flow in 663 faces on pressure-outlet 130. 

  iter  continuity  x-velocity  y-velocity  z-velocity      energy           k     epsilon  volflow_in      dpm_p2    temp_max     temp_p1     dpm_cor      dpm_or  volflow_co  volflow_or  pressure_c  pressure_o  heat_balan  mass_balan  pressure_d     time/iter
    89  2.9158e-03  6.3147e-04  7.2880e-04  1.2838e-03  2.5094e-08  3.6669e-03  7.5664e-03  2.1019e+00  0.0000e+00  4.1361e+02  2.9624e+02  0.0000e+00  0.0000e+00 -1.0695e-01 -2.1075e+00 -1.3141e+00  6.0782e+00 -4.5363e+00  1.2519e-03  7.3923e+00  3:04:11 5911

 reversed flow in 648 faces on pressure-outlet 130. 
/file/read-macros controlruntime.scm
Loading "././controlruntime.scm"
Done.

> 
    90  2.9070e-03  6.3015e-04  7.2719e-04  1.2800e-03  2.4969e-08  3.6507e-03  7.5038e-03  2.1019e+00  0.0000e+00  4.1304e+02  2.9623e+02  0.0000e+00  0.0000e+00 -1.0694e-01 -2.1075e+00 -1.3003e+00  6.0772e+00 -4.5571e+00  1.2660e-03  7.3775e+00  3:03:00 5910

 reversed flow in 649 faces on pressure-outlet 130. 
    91  2.8916e-03  6.2901e-04  7.2573e-04  1.2761e-03  2.4749e-08  3.6343e-03  7.4409e-03  2.1019e+00  0.0000e+00  4.1245e+02  2.9622e+02  0.0000e+00  0.0000e+00 -1.0692e-01 -2.1075e+00 -1.2776e+00  6.0767e+00 -4.5834e+00  1.2802e-03  7.3543e+00  3:01:46 5909

 reversed flow in 636 faces on pressure-outlet 130. 
    92  2.8838e-03  6.2768e-04  7.2412e-04  1.2722e-03  2.4563e-08  3.6182e-03  7.3805e-03  2.1019e+00  0.0000e+00  4.1184e+02  2.9622e+02  0.0000e+00  0.0000e+00 -1.0697e-01 -2.1075e+00 -1.2567e+00  6.0756e+00 -4.4951e+00  1.2291e-03  7.3323e+00  3:00:43 5908

 reversed flow in 631 faces on pressure-outlet 130. 
    93  2.8747e-03  6.2642e-04  7.2236e-04  1.2681e-03  2.4608e-08  3.6022e-03  7.3192e-03  2.1019e+00  0.0000e+00  4.1141e+02  2.9621e+02  0.0000e+00  0.0000e+00 -1.0699e-01 -2.1075e+00 -1.2407e+00  6.0751e+00 -4.2739e+00  1.2008e-03  7.3158e+00  3:00:38 5907

 reversed flow in 631 faces on pressure-outlet 130. 
    94  2.8546e-03  6.2513e-04  7.2077e-04  1.2643e-03  2.3958e-08  3.5866e-03  7.2595e-03  2.1019e+00  0.0000e+00  4.1122e+02  2.9621e+02  0.0000e+00  0.0000e+00 -1.0701e-01 -2.1075e+00 -1.2233e+00  6.0743e+00 -4.2495e+00  1.1769e-03  7.2975e+00  3:00:05 5906

 reversed flow in 622 faces on pressure-outlet 130. 
    95  2.8549e-03  6.2378e-04  7.1913e-04  1.2602e-03  2.3956e-08  3.5714e-03  7.2038e-03  2.1019e+00  0.0000e+00  4.1088e+02  2.9620e+02  0.0000e+00  0.0000e+00 -1.0702e-01 -2.1075e+00 -1.2106e+00  6.0736e+00 -4.3518e+00  1.1674e-03  7.2842e+00  3:00:23 5905

 reversed flow in 614 faces on pressure-outlet 130. 
    96  2.8424e-03  6.2255e-04  7.1746e-04  1.2563e-03  2.3816e-08  3.5567e-03  7.1520e-03  2.1019e+00  0.0000e+00  4.1037e+02  2.9619e+02  0.0000e+00  0.0000e+00 -1.0701e-01 -2.1075e+00 -1.1938e+00  6.0730e+00 -4.5641e+00  1.1709e-03  7.2667e+00  2:59:38 5904

 reversed flow in 613 faces on pressure-outlet 130. 
    97  2.8371e-03  6.2129e-04  7.1598e-04  1.2524e-03  2.3723e-08  3.5414e-03  7.0951e-03  2.1019e+00  0.0000e+00  4.0983e+02  2.9619e+02  0.0000e+00  0.0000e+00 -1.0706e-01 -2.1075e+00 -1.1725e+00  6.0721e+00 -4.3372e+00  1.1126e-03  7.2447e+00  3:04:15 5903

 reversed flow in 603 faces on pressure-outlet 130. 
    98  2.8330e-03  6.2004e-04  7.1433e-04  1.2483e-03  2.3494e-08  3.5267e-03  7.0414e-03  2.1019e+00  0.0000e+00  4.0926e+02  2.9618e+02  0.0000e+00  0.0000e+00 -1.0713e-01 -2.1075e+00 -1.1592e+00  6.0716e+00 -4.2079e+00  1.0320e-03  7.2308e+00  3:02:52 5902

 reversed flow in 591 faces on pressure-outlet 130. 
    99  2.8193e-03  6.1870e-04  7.1263e-04  1.2444e-03  2.3586e-08  3.5126e-03  6.9914e-03  2.1019e+00  0.0000e+00  4.0867e+02  2.9617e+02  0.0000e+00  0.0000e+00 -1.0714e-01 -2.1075e+00 -1.1498e+00  6.0709e+00 -3.9369e+00  1.0206e-03  7.2207e+00  3:02:36 5901

 reversed flow in 580 faces on pressure-outlet 130. 

  iter  continuity  x-velocity  y-velocity  z-velocity      energy           k     epsilon  volflow_in      dpm_p2    temp_max     temp_p1     dpm_cor      dpm_or  volflow_co  volflow_or  pressure_c  pressure_o  heat_balan  mass_balan  pressure_d     time/iter
/file/read-macros controlruntime.scm
Loading "././controlruntime.scm"
Done.

> 
   100  2.8195e-03  6.1743e-04  7.1120e-04  1.2407e-03  2.2959e-08  3.4986e-03  6.9436e-03  2.1019e+00  0.0000e+00  4.0943e+02  2.9617e+02  0.0000e+00  0.0000e+00 -1.0713e-01 -2.1075e+00 -1.1362e+00  6.0701e+00 -3.9524e+00  1.0383e-03  7.2062e+00  3:02:33 5900

 reversed flow in 574 faces on pressure-outlet 130. 
   101  2.8103e-03  6.1616e-04  7.0976e-04  1.2370e-03  2.2978e-08  3.4846e-03  6.8926e-03  2.1019e+00  0.0000e+00  4.1026e+02  2.9616e+02  0.0000e+00  0.0000e+00 -1.0715e-01 -2.1075e+00 -1.1200e+00  6.0696e+00 -4.0057e+00  1.0042e-03  7.1896e+00  3:01:33 5899

 reversed flow in 561 faces on pressure-outlet 130. 
   102  2.7957e-03  6.1474e-04  7.0838e-04  1.2333e-03  2.2857e-08  3.4710e-03  6.8457e-03  2.1019e+00  0.0000e+00  4.1106e+02  2.9615e+02  0.0000e+00  0.0000e+00 -1.0723e-01 -2.1075e+00 -1.1087e+00  6.0690e+00 -3.8951e+00  9.0924e-04  7.1777e+00  3:01:07 5898

 reversed flow in 552 faces on pressure-outlet 130. 
   103  2.7847e-03  6.1353e-04  7.0717e-04  1.2296e-03  2.2688e-08  3.4579e-03  6.8011e-03  2.1019e+00  0.0000e+00  4.1184e+02  2.9615e+02  0.0000e+00  0.0000e+00 -1.0730e-01 -2.1075e+00 -1.0967e+00  6.0684e+00 -3.7800e+00  8.3572e-04  7.1652e+00  3:00:16 5897

 reversed flow in 548 faces on pressure-outlet 130. 
   104  2.7816e-03  6.1226e-04  7.0574e-04  1.2259e-03  2.2575e-08  3.4455e-03  6.7616e-03  2.1019e+00  0.0000e+00  4.1260e+02  2.9614e+02  0.0000e+00  0.0000e+00 -1.0734e-01 -2.1075e+00 -1.0857e+00  6.0684e+00 -3.6828e+00  7.8297e-04  7.1542e+00  2:59:35 5896

 reversed flow in 540 faces on pressure-outlet 130. 
   105  2.7802e-03  6.1097e-04  7.0414e-04  1.2221e-03  2.2442e-08  3.4331e-03  6.7199e-03  2.1019e+00  0.0000e+00  4.1332e+02  2.9613e+02  0.0000e+00  0.0000e+00 -1.0736e-01 -2.1075e+00 -1.0761e+00  6.0674e+00 -3.6580e+00  7.5602e-04  7.1435e+00  2:59:05 5895

 reversed flow in 530 faces on pressure-outlet 130. 
   106  2.7668e-03  6.0964e-04  7.0259e-04  1.2181e-03  2.2557e-08  3.4216e-03  6.6843e-03  2.1019e+00  0.0000e+00  4.1402e+02  2.9613e+02  0.0000e+00  0.0000e+00 -1.0736e-01 -2.1075e+00 -1.0685e+00  6.0664e+00 -3.4293e+00  7.6098e-04  7.1349e+00  3:01:00 5894

 reversed flow in 522 faces on pressure-outlet 130. 
   107  2.7552e-03  6.0827e-04  7.0116e-04  1.2142e-03  2.1946e-08  3.4100e-03  6.6477e-03  2.1019e+00  0.0000e+00  4.1467e+02  2.9612e+02  0.0000e+00  0.0000e+00 -1.0733e-01 -2.1075e+00 -1.0571e+00  6.0657e+00 -3.5071e+00  7.9090e-04  7.1227e+00  3:03:29 5893

 reversed flow in 515 faces on pressure-outlet 130. 
   108  2.7497e-03  6.0689e-04  6.9957e-04  1.2102e-03  2.2007e-08  3.3982e-03  6.6100e-03  2.1019e+00  0.0000e+00  4.1526e+02  2.9612e+02  0.0000e+00  0.0000e+00 -1.0732e-01 -2.1075e+00 -1.0444e+00  6.0654e+00 -3.6005e+00  8.1009e-04  7.1099e+00  3:02:53 5892

 reversed flow in 502 faces on pressure-outlet 130. 
   109  2.7344e-03  6.0554e-04  6.9810e-04  1.2064e-03  2.2177e-08  3.3872e-03  6.5763e-03  2.1019e+00  0.0000e+00  4.1580e+02  2.9611e+02  0.0000e+00  0.0000e+00 -1.0734e-01 -2.1075e+00 -1.0341e+00  6.0650e+00 -3.4083e+00  7.8494e-04  7.0991e+00  3:01:43 5891

 reversed flow in 496 faces on pressure-outlet 130. 
/file/read-macros controlruntime.scm
Loading "././controlruntime.scm"
Done.

> 
   110  2.7192e-03  6.0421e-04  6.9652e-04  1.2025e-03  2.1619e-08  3.3764e-03  6.5438e-03  2.1019e+00  0.0000e+00  4.1628e+02  2.9610e+02  0.0000e+00  0.0000e+00 -1.0737e-01 -2.1075e+00 -1.0216e+00  6.0644e+00 -3.3645e+00  7.4822e-04  7.0860e+00  3:00:42 5890

 reversed flow in 482 faces on pressure-outlet 130. 

  iter  continuity  x-velocity  y-velocity  z-velocity      energy           k     epsilon  volflow_in      dpm_p2    temp_max     temp_p1     dpm_cor      dpm_or  volflow_co  volflow_or  pressure_c  pressure_o  heat_balan  mass_balan  pressure_d     time/iter
   111  2.7082e-03  6.0281e-04  6.9482e-04  1.1986e-03  2.1910e-08  3.3663e-03  6.5148e-03  2.1019e+00  0.0000e+00  4.1672e+02  2.9610e+02  0.0000e+00  0.0000e+00 -1.0740e-01 -2.1075e+00 -1.0137e+00  6.0641e+00 -3.2103e+00  7.1112e-04  7.0778e+00  3:00:29 5889

 reversed flow in 478 faces on pressure-outlet 130. 
   112  2.6961e-03  6.0142e-04  6.9318e-04  1.1946e-03  2.1641e-08  3.3559e-03  6.4854e-03  2.1019e+00  0.0000e+00  4.1711e+02  2.9609e+02  0.0000e+00  0.0000e+00 -1.0741e-01 -2.1075e+00 -1.0063e+00  6.0633e+00 -3.1178e+00  7.0254e-04  7.0696e+00  3:02:05 5888

 reversed flow in 474 faces on pressure-outlet 130. 
   113  2.6914e-03  5.9993e-04  6.9160e-04  1.1905e-03  2.1423e-08  3.3460e-03  6.4561e-03  2.1019e+00  0.0000e+00  4.1746e+02  2.9609e+02  0.0000e+00  0.0000e+00 -1.0743e-01 -2.1075e+00 -9.9475e-01  6.0629e+00 -3.0594e+00  6.7992e-04  7.0576e+00  3:02:03 5887

 reversed flow in 465 faces on pressure-outlet 130. 
   114  2.6858e-03  5.9846e-04  6.9011e-04  1.1866e-03  2.1210e-08  3.3357e-03  6.4269e-03  2.1019e+00  0.0000e+00  4.1777e+02  2.9608e+02  0.0000e+00  0.0000e+00 -1.0745e-01 -2.1075e+00 -9.8580e-01  6.0622e+00 -3.1719e+00  6.5423e-04  7.0480e+00  3:03:27 5886

 reversed flow in 453 faces on pressure-outlet 130. 
   115  2.6848e-03  5.9703e-04  6.8882e-04  1.1826e-03  2.1261e-08  3.3255e-03  6.3995e-03  2.1019e+00  0.0000e+00  4.1803e+02  2.9607e+02  0.0000e+00  0.0000e+00 -1.0749e-01 -2.1075e+00 -9.7776e-01  6.0620e+00 -3.2535e+00  6.0696e-04  7.0397e+00  3:04:55 5885

 reversed flow in 447 faces on pressure-outlet 130. 
   116  2.6883e-03  5.9552e-04  6.8749e-04  1.1787e-03  2.1426e-08  3.3152e-03  6.3731e-03  2.1019e+00  0.0000e+00  4.1827e+02  2.9607e+02  0.0000e+00  0.0000e+00 -1.0753e-01 -2.1075e+00 -9.7015e-01  6.0616e+00 -3.0146e+00  5.6012e-04  7.0318e+00  3:03:08 5884

 reversed flow in 433 faces on pressure-outlet 130. 
   117  2.6820e-03  5.9417e-04  6.8621e-04  1.1750e-03  2.0928e-08  3.3049e-03  6.3468e-03  2.1019e+00  0.0000e+00  4.1846e+02  2.9606e+02  0.0000e+00  0.0000e+00 -1.0755e-01 -2.1075e+00 -9.6387e-01  6.0611e+00 -3.0008e+00  5.3517e-04  7.0250e+00  3:04:59 5883

 reversed flow in 427 faces on pressure-outlet 130. 
   118  2.6779e-03  5.9275e-04  6.8489e-04  1.1711e-03  2.1200e-08  3.2943e-03  6.3193e-03  2.1019e+00  0.0000e+00  4.1863e+02  2.9606e+02  0.0000e+00  0.0000e+00 -1.0755e-01 -2.1075e+00 -9.5679e-01  6.0602e+00 -2.8636e+00  5.3505e-04  7.0170e+00  3:03:15 5882

 reversed flow in 418 faces on pressure-outlet 130. 
   119  2.6706e-03  5.9129e-04  6.8359e-04  1.1672e-03  2.0745e-08  3.2837e-03  6.2928e-03  2.1019e+00  0.0000e+00  4.1877e+02  2.9605e+02  0.0000e+00  0.0000e+00 -1.0755e-01 -2.1075e+00 -9.5022e-01  6.0601e+00 -2.9223e+00  5.2940e-04  7.0103e+00  3:02:40 5881

 reversed flow in 412 faces on pressure-outlet 130. 
/file/read-macros controlruntime.scm
Loading "././controlruntime.scm"
Done.

> 
   120  2.6670e-03  5.8981e-04  6.8203e-04  1.1634e-03  2.1041e-08  3.2729e-03  6.2637e-03  2.1019e+00  0.0000e+00  4.1888e+02  2.9604e+02  0.0000e+00  0.0000e+00 -1.0756e-01 -2.1075e+00 -9.4270e-01  6.0594e+00 -2.8352e+00  5.2061e-04  7.0021e+00  3:02:00 5880

 reversed flow in 405 faces on pressure-outlet 130. 
   121  2.6583e-03  5.8831e-04  6.8069e-04  1.1596e-03  2.0789e-08  3.2623e-03  6.2361e-03  2.1019e+00  0.0000e+00  4.1896e+02  2.9604e+02  0.0000e+00  0.0000e+00 -1.0757e-01 -2.1075e+00 -9.3753e-01  6.0591e+00 -2.6961e+00  5.0572e-04  6.9966e+00  3:01:06 5879

 reversed flow in 400 faces on pressure-outlet 130. 

  iter  continuity  x-velocity  y-velocity  z-velocity      energy           k     epsilon  volflow_in      dpm_p2    temp_max     temp_p1     dpm_cor      dpm_or  volflow_co  volflow_or  pressure_c  pressure_o  heat_balan  mass_balan  pressure_d     time/iter
   122  2.6414e-03  5.8682e-04  6.7944e-04  1.1559e-03  2.0469e-08  3.2520e-03  6.2090e-03  2.1019e+00  0.0000e+00  4.1901e+02  2.9603e+02  0.0000e+00  0.0000e+00 -1.0759e-01 -2.1075e+00 -9.3127e-01  6.0588e+00 -2.7964e+00  4.8918e-04  6.9901e+00  3:00:21 5878

 reversed flow in 395 faces on pressure-outlet 130. 
   123  2.6253e-03  5.8522e-04  6.7794e-04  1.1519e-03  2.0614e-08  3.2416e-03  6.1816e-03  2.1019e+00  0.0000e+00  4.1903e+02  2.9603e+02  0.0000e+00  0.0000e+00 -1.0758e-01 -2.1075e+00 -9.2545e-01  6.0582e+00 -2.9445e+00  5.0219e-04  6.9836e+00  3:02:12 5877

 reversed flow in 390 faces on pressure-outlet 130. 
   124  2.6011e-03  5.8367e-04  6.7634e-04  1.1478e-03  2.0607e-08  3.2318e-03  6.1557e-03  2.1019e+00  0.0000e+00  4.1902e+02  2.9602e+02  0.0000e+00  0.0000e+00 -1.0758e-01 -2.1075e+00 -9.1826e-01  6.0577e+00 -2.9269e+00  5.0022e-04  6.9760e+00  3:03:31 5876

 reversed flow in 387 faces on pressure-outlet 130. 
   125  2.5866e-03  5.8205e-04  6.7465e-04  1.1436e-03  2.0454e-08  3.2223e-03  6.1288e-03  2.1019e+00  0.0000e+00  4.1898e+02  2.9602e+02  0.0000e+00  0.0000e+00 -1.0758e-01 -2.1075e+00 -9.1109e-01  6.0575e+00 -2.8870e+00  5.0193e-04  6.9686e+00  3:05:27 5875

 reversed flow in 382 faces on pressure-outlet 130. 
   126  2.5711e-03  5.8041e-04  6.7306e-04  1.1394e-03  2.0416e-08  3.2131e-03  6.1023e-03  2.1019e+00  0.0000e+00  4.1892e+02  2.9601e+02  0.0000e+00  0.0000e+00 -1.0755e-01 -2.1075e+00 -9.0593e-01  6.0570e+00 -2.8867e+00  5.3613e-04  6.9629e+00  3:04:03 5874

 reversed flow in 378 faces on pressure-outlet 130. 
   127  2.5576e-03  5.7884e-04  6.7137e-04  1.1352e-03  2.0323e-08  3.2040e-03  6.0787e-03  2.1019e+00  0.0000e+00  4.1881e+02  2.9601e+02  0.0000e+00  0.0000e+00 -1.0753e-01 -2.1075e+00 -8.9675e-01  6.0567e+00 -2.9388e+00  5.5982e-04  6.9534e+00  3:05:53 5873

 reversed flow in 378 faces on pressure-outlet 130. 
   128  2.5481e-03  5.7728e-04  6.6982e-04  1.1310e-03  2.0297e-08  3.1951e-03  6.0570e-03  2.1019e+00  0.0000e+00  4.1864e+02  2.9600e+02  0.0000e+00  0.0000e+00 -1.0753e-01 -2.1075e+00 -8.8724e-01  6.0562e+00 -2.8937e+00  5.5757e-04  6.9434e+00  3:03:52 5872

 reversed flow in 372 faces on pressure-outlet 130. 
   129  2.5402e-03  5.7570e-04  6.6816e-04  1.1270e-03  2.0228e-08  3.1861e-03  6.0371e-03  2.1019e+00  0.0000e+00  4.1843e+02  2.9599e+02  0.0000e+00  0.0000e+00 -1.0754e-01 -2.1075e+00 -8.7930e-01  6.0556e+00 -2.8458e+00  5.4055e-04  6.9349e+00  3:02:13 5871

 reversed flow in 363 faces on pressure-outlet 130. 
/file/read-macros controlruntime.scm
Loading "././controlruntime.scm"
Done.

> 
   130  2.5344e-03  5.7418e-04  6.6664e-04  1.1232e-03  2.0164e-08  3.1771e-03  6.0170e-03  2.1019e+00  0.0000e+00  4.1817e+02  2.9599e+02  0.0000e+00  0.0000e+00 -1.0758e-01 -2.1075e+00 -8.7117e-01  6.0553e+00 -2.7662e+00  4.9513e-04  6.9264e+00  3:01:00 5870

 reversed flow in 359 faces on pressure-outlet 130. 
   131  2.5340e-03  5.7265e-04  6.6527e-04  1.1194e-03  2.0082e-08  3.1677e-03  5.9959e-03  2.1019e+00  0.0000e+00  4.1786e+02  2.9598e+02  0.0000e+00  0.0000e+00 -1.0761e-01 -2.1075e+00 -8.6442e-01  6.0549e+00 -2.7232e+00  4.6410e-04  6.9193e+00  3:02:19 5869

 reversed flow in 355 faces on pressure-outlet 130. 
   132  2.5314e-03  5.7100e-04  6.6377e-04  1.1155e-03  2.0056e-08  3.1585e-03  5.9757e-03  2.1019e+00  0.0000e+00  4.1749e+02  2.9598e+02  0.0000e+00  0.0000e+00 -1.0764e-01 -2.1075e+00 -8.5907e-01  6.0545e+00 -2.6568e+00  4.2403e-04  6.9136e+00  3:02:48 5868

 reversed flow in 352 faces on pressure-outlet 130. 

  iter  continuity  x-velocity  y-velocity  z-velocity      energy           k     epsilon  volflow_in      dpm_p2    temp_max     temp_p1     dpm_cor      dpm_or  volflow_co  volflow_or  pressure_c  pressure_o  heat_balan  mass_balan  pressure_d     time/iter
   133  2.5272e-03  5.6949e-04  6.6253e-04  1.1118e-03  1.9979e-08  3.1492e-03  5.9560e-03  2.1019e+00  0.0000e+00  4.1708e+02  2.9597e+02  0.0000e+00  0.0000e+00 -1.0767e-01 -2.1075e+00 -8.5385e-01  6.0541e+00 -2.6012e+00  3.8530e-04  6.9079e+00  3:01:32 5867

 reversed flow in 351 faces on pressure-outlet 130. 
   134  2.5268e-03  5.6802e-04  6.6143e-04  1.1082e-03  2.0102e-08  3.1401e-03  5.9364e-03  2.1019e+00  0.0000e+00  4.1662e+02  2.9597e+02  0.0000e+00  0.0000e+00 -1.0769e-01 -2.1075e+00 -8.5018e-01  6.0536e+00 -2.3909e+00  3.6542e-04  6.9038e+00  3:00:16 5866

 reversed flow in 356 faces on pressure-outlet 130. 
   135  2.5202e-03  5.6653e-04  6.6030e-04  1.1046e-03  1.9733e-08  3.1312e-03  5.9153e-03  2.1019e+00  0.0000e+00  4.1610e+02  2.9596e+02  0.0000e+00  0.0000e+00 -1.0768e-01 -2.1075e+00 -8.4699e-01  6.0533e+00 -2.4280e+00  3.7751e-04  6.9003e+00  2:59:19 5865

 reversed flow in 351 faces on pressure-outlet 130. 
   136  2.5115e-03  5.6513e-04  6.5911e-04  1.1011e-03  1.9951e-08  3.1222e-03  5.8948e-03  2.1019e+00  0.0000e+00  4.1553e+02  2.9596e+02  0.0000e+00  0.0000e+00 -1.0768e-01 -2.1075e+00 -8.4461e-01  6.0527e+00 -2.3303e+00  3.7531e-04  6.8973e+00  2:58:31 5864

 reversed flow in 350 faces on pressure-outlet 130. 
   137  2.5015e-03  5.6380e-04  6.5801e-04  1.0976e-03  1.9763e-08  3.1130e-03  5.8728e-03  2.1019e+00  0.0000e+00  4.1479e+02  2.9595e+02  0.0000e+00  0.0000e+00 -1.0768e-01 -2.1075e+00 -8.4009e-01  6.0524e+00 -2.2544e+00  3.7299e-04  6.8925e+00  3:01:31 5863

 reversed flow in 348 faces on pressure-outlet 130. 
   138  2.5012e-03  5.6232e-04  6.5685e-04  1.0942e-03  1.9540e-08  3.1034e-03  5.8503e-03  2.1019e+00  0.0000e+00  4.1401e+02  2.9595e+02  0.0000e+00  0.0000e+00 -1.0770e-01 -2.1075e+00 -8.3685e-01  6.0521e+00 -2.3361e+00  3.5911e-04  6.8890e+00  3:03:43 5862

 reversed flow in 345 faces on pressure-outlet 130. 
   139  2.4952e-03  5.6088e-04  6.5570e-04  1.0911e-03  1.9631e-08  3.0936e-03  5.8275e-03  2.1019e+00  0.0000e+00  4.1321e+02  2.9594e+02  0.0000e+00  0.0000e+00 -1.0769e-01 -2.1075e+00 -8.3284e-01  6.0517e+00 -2.4313e+00  3.6766e-04  6.8845e+00  3:03:27 5861

 reversed flow in 340 faces on pressure-outlet 130. 
/file/read-macros controlruntime.scm
Loading "././controlruntime.scm"
Done.

> 
   140  2.4908e-03  5.5939e-04  6.5449e-04  1.0878e-03  1.9779e-08  3.0838e-03  5.8054e-03  2.1019e+00  0.0000e+00  4.1236e+02  2.9593e+02  0.0000e+00  0.0000e+00 -1.0768e-01 -2.1075e+00 -8.3037e-01  6.0514e+00 -2.2829e+00  3.7966e-04  6.8817e+00  3:01:49 5860

 reversed flow in 338 faces on pressure-outlet 130. 
   141  2.4854e-03  5.5808e-04  6.5317e-04  1.0843e-03  1.9387e-08  3.0739e-03  5.7826e-03  2.1019e+00  0.0000e+00  4.1147e+02  2.9593e+02  0.0000e+00  0.0000e+00 -1.0768e-01 -2.1075e+00 -8.2531e-01  6.0506e+00 -2.2870e+00  3.7581e-04  6.8759e+00  3:00:31 5859

 reversed flow in 339 faces on pressure-outlet 130. 
   142  2.4749e-03  5.5672e-04  6.5182e-04  1.0805e-03  1.9473e-08  3.0635e-03  5.7585e-03  2.1019e+00  0.0000e+00  4.1053e+02  2.9592e+02  0.0000e+00  0.0000e+00 -1.0768e-01 -2.1075e+00 -8.1990e-01  6.0503e+00 -2.3601e+00  3.7509e-04  6.8702e+00  3:00:19 5858

 reversed flow in 335 faces on pressure-outlet 130. 
   143  2.4567e-03  5.5523e-04  6.5048e-04  1.0769e-03  1.9600e-08  3.0530e-03  5.7341e-03  2.1019e+00  0.0000e+00  4.0953e+02  2.9592e+02  0.0000e+00  0.0000e+00 -1.0770e-01 -2.1075e+00 -8.1556e-01  6.0501e+00 -2.1765e+00  3.5145e-04  6.8656e+00  3:02:13 5857

 reversed flow in 335 faces on pressure-outlet 130. 

  iter  continuity  x-velocity  y-velocity  z-velocity      energy           k     epsilon  volflow_in      dpm_p2    temp_max     temp_p1     dpm_cor      dpm_or  volflow_co  volflow_or  pressure_c  pressure_o  heat_balan  mass_balan  pressure_d     time/iter
   144  2.4369e-03  5.5365e-04  6.4907e-04  1.0732e-03  1.9250e-08  3.0428e-03  5.7095e-03  2.1019e+00  0.0000e+00  4.0848e+02  2.9591e+02  0.0000e+00  0.0000e+00 -1.0771e-01 -2.1075e+00 -8.1058e-01  6.0497e+00 -2.2207e+00  3.4600e-04  6.8603e+00  3:00:56 5856

 reversed flow in 335 faces on pressure-outlet 130. 
   145  2.4227e-03  5.5205e-04  6.4758e-04  1.0695e-03  1.9305e-08  3.0328e-03  5.6837e-03  2.1019e+00  0.0000e+00  4.0737e+02  2.9591e+02  0.0000e+00  0.0000e+00 -1.0772e-01 -2.1075e+00 -8.0636e-01  6.0493e+00 -2.2648e+00  3.3484e-04  6.8556e+00  3:00:09 5855

 reversed flow in 334 faces on pressure-outlet 130. 
   146  2.4090e-03  5.5043e-04  6.4602e-04  1.0660e-03  1.9279e-08  3.0227e-03  5.6580e-03  2.1019e+00  0.0000e+00  4.0619e+02  2.9590e+02  0.0000e+00  0.0000e+00 -1.0771e-01 -2.1074e+00 -8.0204e-01  6.0490e+00 -2.2879e+00  3.3669e-04  6.8510e+00  3:01:04 5854

 reversed flow in 338 faces on pressure-outlet 130. 
   147  2.3955e-03  5.4880e-04  6.4446e-04  1.0622e-03  1.9230e-08  3.0128e-03  5.6336e-03  2.1019e+00  0.0000e+00  4.0495e+02  2.9590e+02  0.0000e+00  0.0000e+00 -1.0769e-01 -2.1074e+00 -7.9997e-01  6.0486e+00 -2.2943e+00  3.6672e-04  6.8486e+00  3:05:09 5853

 reversed flow in 336 faces on pressure-outlet 130. 
   148  2.3792e-03  5.4718e-04  6.4295e-04  1.0586e-03  1.9351e-08  3.0026e-03  5.6089e-03  2.1019e+00  0.0000e+00  4.0365e+02  2.9589e+02  0.0000e+00  0.0000e+00 -1.0765e-01 -2.1074e+00 -7.9652e-01  6.0481e+00 -2.1818e+00  4.1476e-04  6.8447e+00  3:06:20 5852

 reversed flow in 329 faces on pressure-outlet 130. 
   149  2.3693e-03  5.4550e-04  6.4143e-04  1.0547e-03  1.8987e-08  2.9923e-03  5.5854e-03  2.1019e+00  0.0000e+00  4.0226e+02  2.9589e+02  0.0000e+00  0.0000e+00 -1.0763e-01 -2.1074e+00 -7.9089e-01  6.0476e+00 -2.2372e+00  4.4259e-04  6.8384e+00  3:06:23 5851

 reversed flow in 323 faces on pressure-outlet 130. 
/file/read-macros controlruntime.scm
Loading "././controlruntime.scm"
Done.

> 
   150  2.3634e-03  5.4388e-04  6.4003e-04  1.0511e-03  1.9075e-08  2.9822e-03  5.5632e-03  2.1019e+00  0.0000e+00  4.0161e+02  2.9588e+02  0.0000e+00  0.0000e+00 -1.0764e-01 -2.1074e+00 -7.8549e-01  6.0473e+00 -2.2643e+00  4.2867e-04  6.8328e+00  3:04:04 5850

 reversed flow in 325 faces on pressure-outlet 130. 
   151  2.3539e-03  5.4215e-04  6.3851e-04  1.0474e-03  1.9033e-08  2.9722e-03  5.5406e-03  2.1019e+00  0.0000e+00  4.0200e+02  2.9588e+02  0.0000e+00  0.0000e+00 -1.0766e-01 -2.1074e+00 -7.7983e-01  6.0470e+00 -2.2474e+00  4.0013e-04  6.8269e+00  3:04:49 5849

 reversed flow in 325 faces on pressure-outlet 130. 
   152  2.3475e-03  5.4054e-04  6.3714e-04  1.0440e-03  1.8928e-08  2.9622e-03  5.5167e-03  2.1019e+00  0.0000e+00  4.0234e+02  2.9587e+02  0.0000e+00  0.0000e+00 -1.0769e-01 -2.1074e+00 -7.7436e-01  6.0467e+00 -2.1878e+00  3.6544e-04  6.8210e+00  3:02:54 5848

 reversed flow in 322 faces on pressure-outlet 130. 
   153  2.3393e-03  5.3897e-04  6.3573e-04  1.0404e-03  1.8952e-08  2.9523e-03  5.4927e-03  2.1019e+00  0.0000e+00  4.0255e+02  2.9587e+02  0.0000e+00  0.0000e+00 -1.0771e-01 -2.1074e+00 -7.7068e-01  6.0463e+00 -2.1437e+00  3.4041e-04  6.8170e+00  3:01:15 5847

 reversed flow in 324 faces on pressure-outlet 130. 
   154  2.3320e-03  5.3741e-04  6.3441e-04  1.0368e-03  1.8864e-08  2.9426e-03  5.4695e-03  2.1019e+00  0.0000e+00  4.0256e+02  2.9586e+02  0.0000e+00  0.0000e+00 -1.0773e-01 -2.1074e+00 -7.6500e-01  6.0459e+00 -2.1093e+00  3.1869e-04  6.8109e+00  3:00:35 5846

 reversed flow in 325 faces on pressure-outlet 130. 

  iter  continuity  x-velocity  y-velocity  z-velocity      energy           k     epsilon  volflow_in      dpm_p2    temp_max     temp_p1     dpm_cor      dpm_or  volflow_co  volflow_or  pressure_c  pressure_o  heat_balan  mass_balan  pressure_d     time/iter
   155  2.3238e-03  5.3589e-04  6.3317e-04  1.0331e-03  1.8847e-08  2.9327e-03  5.4472e-03  2.1019e+00  0.0000e+00  4.0232e+02  2.9586e+02  0.0000e+00  0.0000e+00 -1.0777e-01 -2.1074e+00 -7.6143e-01  6.0456e+00 -2.0381e+00  2.7454e-04  6.8070e+00  2:59:43 5845

 reversed flow in 325 faces on pressure-outlet 130. 
   156  2.3151e-03  5.3436e-04  6.3211e-04  1.0297e-03  1.8910e-08  2.9228e-03  5.4247e-03  2.1019e+00  0.0000e+00  4.0177e+02  2.9585e+02  0.0000e+00  0.0000e+00 -1.0779e-01 -2.1074e+00 -7.5892e-01  6.0450e+00 -1.8468e+00  2.4667e-04  6.8039e+00  2:59:35 5844

 reversed flow in 324 faces on pressure-outlet 130. 
   157  2.3099e-03  5.3286e-04  6.3109e-04  1.0265e-03  1.8605e-08  2.9129e-03  5.4036e-03  2.1019e+00  0.0000e+00  4.0087e+02  2.9585e+02  0.0000e+00  0.0000e+00 -1.0781e-01 -2.1074e+00 -7.5696e-01  6.0448e+00 -1.8517e+00  2.2434e-04  6.8018e+00  3:04:38 5843

 reversed flow in 321 faces on pressure-outlet 130. 
   158  2.3017e-03  5.3126e-04  6.3003e-04  1.0233e-03  1.8771e-08  2.9031e-03  5.3817e-03  2.1019e+00  0.0000e+00  3.9958e+02  2.9584e+02  0.0000e+00  0.0000e+00 -1.0782e-01 -2.1074e+00 -7.5490e-01  6.0445e+00 -1.7766e+00  2.1435e-04  6.7994e+00  3:03:04 5842

 reversed flow in 315 faces on pressure-outlet 130. 
   159  2.2977e-03  5.2982e-04  6.2901e-04  1.0202e-03  1.8524e-08  2.8931e-03  5.3588e-03  2.1019e+00  0.0000e+00  3.9778e+02  2.9584e+02  0.0000e+00  0.0000e+00 -1.0782e-01 -2.1074e+00 -7.5301e-01  6.0442e+00 -1.8202e+00  2.1438e-04  6.7972e+00  3:02:33 5841

 reversed flow in 316 faces on pressure-outlet 130. 
/file/read-macros controlruntime.scm
Loading "././controlruntime.scm"
Done.

> 
   160  2.2857e-03  5.2830e-04  6.2789e-04  1.0170e-03  1.8703e-08  2.8835e-03  5.3359e-03  2.1019e+00  0.0000e+00  3.9702e+02  2.9583e+02  0.0000e+00  0.0000e+00 -1.0781e-01 -2.1074e+00 -7.5179e-01  6.0442e+00 -1.7120e+00  2.2468e-04  6.7960e+00  3:01:33 5840

 reversed flow in 316 faces on pressure-outlet 130. 
   161  2.2786e-03  5.2670e-04  6.2683e-04  1.0139e-03  1.8426e-08  2.8741e-03  5.3130e-03  2.1019e+00  0.0000e+00  3.9662e+02  2.9583e+02  0.0000e+00  0.0000e+00 -1.0780e-01 -2.1074e+00 -7.4909e-01  6.0435e+00 -1.7806e+00  2.3788e-04  6.7926e+00  3:01:45 5839

 reversed flow in 315 faces on pressure-outlet 130. 
   162  2.2672e-03  5.2500e-04  6.2556e-04  1.0106e-03  1.8501e-08  2.8646e-03  5.2897e-03  2.1019e+00  0.0000e+00  3.9734e+02  2.9582e+02  0.0000e+00  0.0000e+00 -1.0779e-01 -2.1074e+00 -7.4649e-01  6.0431e+00 -1.8359e+00  2.5109e-04  6.7895e+00  3:01:06 5838

 reversed flow in 315 faces on pressure-outlet 130. 
   163  2.2579e-03  5.2325e-04  6.2418e-04  1.0073e-03  1.8451e-08  2.8551e-03  5.2679e-03  2.1019e+00  0.0000e+00  3.9836e+02  2.9582e+02  0.0000e+00  0.0000e+00 -1.0777e-01 -2.1074e+00 -7.4245e-01  6.0426e+00 -1.8860e+00  2.6726e-04  6.7850e+00  3:02:53 5837

 reversed flow in 315 faces on pressure-outlet 130. 
   164  2.2490e-03  5.2155e-04  6.2269e-04  1.0039e-03  1.8385e-08  2.8455e-03  5.2465e-03  2.1019e+00  0.0000e+00  3.9929e+02  2.9581e+02  0.0000e+00  0.0000e+00 -1.0776e-01 -2.1074e+00 -7.3912e-01  6.0418e+00 -1.9183e+00  2.8788e-04  6.7810e+00  3:02:57 5836

 reversed flow in 312 faces on pressure-outlet 130. 
   165  2.2345e-03  5.1990e-04  6.2127e-04  1.0004e-03  1.8349e-08  2.8360e-03  5.2250e-03  2.1019e+00  0.0000e+00  3.9998e+02  2.9581e+02  0.0000e+00  0.0000e+00 -1.0775e-01 -2.1074e+00 -7.3580e-01  6.0417e+00 -1.9112e+00  2.9798e-04  6.7775e+00  3:01:13 5835

 reversed flow in 311 faces on pressure-outlet 130. 

  iter  continuity  x-velocity  y-velocity  z-velocity      energy           k     epsilon  volflow_in      dpm_p2    temp_max     temp_p1     dpm_cor      dpm_or  volflow_co  volflow_or  pressure_c  pressure_o  heat_balan  mass_balan  pressure_d     time/iter
   166  2.2249e-03  5.1819e-04  6.1973e-04  9.9665e-04  1.8330e-08  2.8262e-03  5.2034e-03  2.1019e+00  0.0000e+00  4.0043e+02  2.9580e+02  0.0000e+00  0.0000e+00 -1.0774e-01 -2.1074e+00 -7.3194e-01  6.0415e+00 -1.9061e+00  3.0531e-04  6.7734e+00  2:59:47 5834

 reversed flow in 309 faces on pressure-outlet 130. 
   167  2.2175e-03  5.1645e-04  6.1836e-04  9.9298e-04  1.8267e-08  2.8163e-03  5.1810e-03  2.1019e+00  0.0000e+00  4.0069e+02  2.9580e+02  0.0000e+00  0.0000e+00 -1.0772e-01 -2.1074e+00 -7.2973e-01  6.0413e+00 -1.9127e+00  3.2601e-04  6.7710e+00  3:01:45 5833

 reversed flow in 310 faces on pressure-outlet 130. 
   168  2.2140e-03  5.1485e-04  6.1718e-04  9.8955e-04  1.8351e-08  2.8061e-03  5.1589e-03  2.1019e+00  0.0000e+00  4.0085e+02  2.9579e+02  0.0000e+00  0.0000e+00 -1.0771e-01 -2.1074e+00 -7.2400e-01  6.0409e+00 -1.7506e+00  3.4160e-04  6.7649e+00  3:03:19 5832

 reversed flow in 311 faces on pressure-outlet 130. 
   169  2.2156e-03  5.1339e-04  6.1609e-04  9.8625e-04  1.8074e-08  2.7959e-03  5.1362e-03  2.1019e+00  0.0000e+00  4.0089e+02  2.9579e+02  0.0000e+00  0.0000e+00 -1.0772e-01 -2.1074e+00 -7.1986e-01  6.0406e+00 -1.7727e+00  3.2545e-04  6.7605e+00  3:01:31 5831

 reversed flow in 307 faces on pressure-outlet 130. 
/file/read-macros controlruntime.scm
Loading "././controlruntime.scm"
Done.

> 
   170  2.2028e-03  5.1184e-04  6.1511e-04  9.8287e-04  1.8094e-08  2.7856e-03  5.1117e-03  2.1019e+00  0.0000e+00  4.0080e+02  2.9578e+02  0.0000e+00  0.0000e+00 -1.0776e-01 -2.1074e+00 -7.1602e-01  6.0402e+00 -1.7774e+00  2.8239e-04  6.7563e+00  3:00:08 5830

 reversed flow in 302 faces on pressure-outlet 130. 
   171  2.1970e-03  5.1044e-04  6.1430e-04  9.7969e-04  1.8190e-08  2.7752e-03  5.0872e-03  2.1019e+00  0.0000e+00  4.0060e+02  2.9578e+02  0.0000e+00  0.0000e+00 -1.0780e-01 -2.1074e+00 -7.1422e-01  6.0400e+00 -1.5703e+00  2.3335e-04  6.7542e+00  2:58:57 5829

 reversed flow in 301 faces on pressure-outlet 130. 
   172  2.1823e-03  5.0899e-04  6.1347e-04  9.7663e-04  1.7927e-08  2.7650e-03  5.0630e-03  2.1019e+00  0.0000e+00  4.0030e+02  2.9577e+02  0.0000e+00  0.0000e+00 -1.0782e-01 -2.1074e+00 -7.1297e-01  6.0396e+00 -1.5731e+00  2.0957e-04  6.7526e+00  2:59:16 5828

 reversed flow in 293 faces on pressure-outlet 130. 
   173  2.1720e-03  5.0748e-04  6.1260e-04  9.7355e-04  1.7985e-08  2.7550e-03  5.0396e-03  2.1019e+00  0.0000e+00  3.9989e+02  2.9577e+02  0.0000e+00  0.0000e+00 -1.0783e-01 -2.1074e+00 -7.1198e-01  6.0394e+00 -1.6351e+00  2.0354e-04  6.7514e+00  2:58:18 5827

 reversed flow in 291 faces on pressure-outlet 130. 
   174  2.1632e-03  5.0598e-04  6.1170e-04  9.7064e-04  1.7975e-08  2.7453e-03  5.0171e-03  2.1019e+00  0.0000e+00  3.9942e+02  2.9577e+02  0.0000e+00  0.0000e+00 -1.0782e-01 -2.1074e+00 -7.1096e-01  6.0391e+00 -1.6432e+00  2.0799e-04  6.7501e+00  2:57:35 5826

 reversed flow in 291 faces on pressure-outlet 130. 
   175  2.1531e-03  5.0438e-04  6.1071e-04  9.6761e-04  1.7947e-08  2.7356e-03  4.9952e-03  2.1019e+00  0.0000e+00  3.9886e+02  2.9576e+02  0.0000e+00  0.0000e+00 -1.0781e-01 -2.1074e+00 -7.0950e-01  6.0388e+00 -1.6283e+00  2.2149e-04  6.7483e+00  2:56:58 5825

 reversed flow in 292 faces on pressure-outlet 130. 
   176  2.1431e-03  5.0282e-04  6.0957e-04  9.6450e-04  1.7873e-08  2.7259e-03  4.9735e-03  2.1019e+00  0.0000e+00  3.9822e+02  2.9576e+02  0.0000e+00  0.0000e+00 -1.0780e-01 -2.1074e+00 -7.0707e-01  6.0384e+00 -1.6045e+00  2.3099e-04  6.7454e+00  2:56:35 5824

 reversed flow in 296 faces on pressure-outlet 130. 

  iter  continuity  x-velocity  y-velocity  z-velocity      energy           k     epsilon  volflow_in      dpm_p2    temp_max     temp_p1     dpm_cor      dpm_or  volflow_co  volflow_or  pressure_c  pressure_o  heat_balan  mass_balan  pressure_d     time/iter
   177  2.1326e-03  5.0131e-04  6.0847e-04  9.6151e-04  1.7900e-08  2.7162e-03  4.9513e-03  2.1019e+00  0.0000e+00  3.9749e+02  2.9575e+02  0.0000e+00  0.0000e+00 -1.0779e-01 -2.1074e+00 -7.0511e-01  6.0381e+00 -1.6382e+00  2.4122e-04  6.7432e+00  2:59:18 5823

 reversed flow in 298 faces on pressure-outlet 130. 
   178  2.1184e-03  4.9977e-04  6.0744e-04  9.5858e-04  1.7829e-08  2.7064e-03  4.9281e-03  2.1019e+00  0.0000e+00  3.9666e+02  2.9575e+02  0.0000e+00  0.0000e+00 -1.0780e-01 -2.1074e+00 -7.0216e-01  6.0376e+00 -1.6080e+00  2.3489e-04  6.7398e+00  2:58:28 5822

 reversed flow in 293 faces on pressure-outlet 130. 
   179  2.1104e-03  4.9818e-04  6.0635e-04  9.5555e-04  1.7777e-08  2.6968e-03  4.9049e-03  2.1019e+00  0.0000e+00  3.9574e+02  2.9574e+02  0.0000e+00  0.0000e+00 -1.0781e-01 -2.1074e+00 -6.9996e-01  6.0373e+00 -1.5708e+00  2.2144e-04  6.7372e+00  2:57:36 5821

 reversed flow in 290 faces on pressure-outlet 130. 
/file/read-macros controlruntime.scm
Loading "././controlruntime.scm"
Done.

> 
[...]
  5935  4.1561e-05  4.2584e-05  6.1114e-05  5.8519e-05  2.2003e-09  1.0449e-04  9.8879e-05  2.1019e+00  0.0000e+00  3.6376e+02  2.9409e+02  0.0000e+00  0.0000e+00 -1.0800e-01 -2.1069e+00 -1.6421e-01  6.0194e+00  1.1268e-02 -1.6199e-07  6.1836e+00  0:01:59   65
  5936  4.1543e-05  4.2583e-05  6.1105e-05  5.8516e-05  2.2006e-09  1.0450e-04  9.8877e-05  2.1019e+00  0.0000e+00  3.6376e+02  2.9409e+02  0.0000e+00  0.0000e+00 -1.0800e-01 -2.1069e+00 -1.6421e-01  6.0194e+00  1.1489e-02 -9.1331e-08  6.1836e+00  0:01:58   64
  5937  4.1569e-05  4.2582e-05  6.1095e-05  5.8512e-05  2.1974e-09  1.0452e-04  9.8876e-05  2.1019e+00  0.0000e+00  3.6376e+02  2.9409e+02  0.0000e+00  0.0000e+00 -1.0800e-01 -2.1069e+00 -1.6421e-01  6.0194e+00  1.1740e-02 -7.6610e-08  6.1836e+00  0:01:55   63
  5938  4.1540e-05  4.2581e-05  6.1085e-05  5.8509e-05  2.1989e-09  1.0453e-04  9.8873e-05  2.1019e+00  0.0000e+00  3.6376e+02  2.9409e+02  0.0000e+00  0.0000e+00 -1.0800e-01 -2.1069e+00 -1.6421e-01  6.0194e+00  1.0593e-02 -1.0016e-07  6.1836e+00  0:01:52   62
  5939  4.1579e-05  4.2580e-05  6.1075e-05  5.8506e-05  2.1989e-09  1.0455e-04  9.8870e-05  2.1019e+00  0.0000e+00  3.6376e+02  2.9408e+02  0.0000e+00  0.0000e+00 -1.0800e-01 -2.1069e+00 -1.6421e-01  6.0194e+00  1.3193e-02 -1.3521e-07  6.1836e+00  0:01:50   61
/file/read-macros controlruntime.scm
Loading "././controlruntime.scm"
Done.

> 
  5940  4.1541e-05  4.2579e-05  6.1065e-05  5.8502e-05  2.2000e-09  1.0456e-04  9.8871e-05  2.1019e+00  0.0000e+00  3.6376e+02  2.9408e+02  0.0000e+00  0.0000e+00 -1.0800e-01 -2.1069e+00 -1.6421e-01  6.0194e+00  1.3211e-02 -1.8359e-07  6.1836e+00  0:01:48   60

  iter  continuity  x-velocity  y-velocity  z-velocity      energy           k     epsilon  volflow_in      dpm_p2    temp_max     temp_p1     dpm_cor      dpm_or  volflow_co  volflow_or  pressure_c  pressure_o  heat_balan  mass_balan  pressure_d     time/iter
  5941  4.1565e-05  4.2578e-05  6.1055e-05  5.8499e-05  2.1999e-09  1.0457e-04  9.8867e-05  2.1019e+00  0.0000e+00  3.6375e+02  2.9408e+02  0.0000e+00  0.0000e+00 -1.0800e-01 -2.1069e+00 -1.6420e-01  6.0194e+00  1.2166e-02 -2.6037e-07  6.1836e+00  0:01:46   59
  5942  4.1523e-05  4.2577e-05  6.1045e-05  5.8496e-05  2.1976e-09  1.0459e-04  9.8866e-05  2.1019e+00  0.0000e+00  3.6375e+02  2.9408e+02  0.0000e+00  0.0000e+00 -1.0800e-01 -2.1069e+00 -1.6421e-01  6.0194e+00  1.2322e-02 -2.7681e-07  6.1836e+00  0:01:44   58
  5943  4.1539e-05  4.2576e-05  6.1035e-05  5.8492e-05  2.1959e-09  1.0460e-04  9.8866e-05  2.1019e+00  0.0000e+00  3.6375e+02  2.9408e+02  0.0000e+00  0.0000e+00 -1.0800e-01 -2.1069e+00 -1.6421e-01  6.0194e+00  1.3219e-02 -2.5428e-07  6.1836e+00  0:01:42   57
  5944  4.1514e-05  4.2576e-05  6.1025e-05  5.8489e-05  2.1974e-09  1.0461e-04  9.8868e-05  2.1019e+00  0.0000e+00  3.6375e+02  2.9408e+02  0.0000e+00  0.0000e+00 -1.0800e-01 -2.1069e+00 -1.6422e-01  6.0194e+00  1.4055e-02 -1.0320e-07  6.1836e+00  0:01:40   56
  5945  4.1541e-05  4.2575e-05  6.1016e-05  5.8485e-05  2.1945e-09  1.0463e-04  9.8878e-05  2.1019e+00  0.0000e+00  3.6375e+02  2.9408e+02  0.0000e+00  0.0000e+00 -1.0800e-01 -2.1069e+00 -1.6421e-01  6.0194e+00  1.4803e-02 -1.6125e-08  6.1836e+00  0:01:38   55
  5946  4.1553e-05  4.2574e-05  6.1006e-05  5.8482e-05  2.1955e-09  1.0464e-04  9.8886e-05  2.1019e+00  0.0000e+00  3.6375e+02  2.9408e+02  0.0000e+00  0.0000e+00 -1.0800e-01 -2.1069e+00 -1.6421e-01  6.0194e+00  1.5575e-02 -2.3949e-08  6.1836e+00  0:01:38   54
  5947  4.1551e-05  4.2573e-05  6.0996e-05  5.8478e-05  2.1967e-09  1.0466e-04  9.8888e-05  2.1019e+00  0.0000e+00  3.6374e+02  2.9408e+02  0.0000e+00  0.0000e+00 -1.0800e-01 -2.1069e+00 -1.6421e-01  6.0194e+00  1.5825e-02 -6.1594e-08  6.1836e+00  0:01:36   53
  5948  4.1528e-05  4.2572e-05  6.0986e-05  5.8475e-05  2.1976e-09  1.0467e-04  9.8890e-05  2.1019e+00  0.0000e+00  3.6374e+02  2.9408e+02  0.0000e+00  0.0000e+00 -1.0800e-01 -2.1069e+00 -1.6421e-01  6.0194e+00  1.5362e-02 -3.5667e-08  6.1836e+00  0:01:34   52
  5949  4.1549e-05  4.2571e-05  6.0977e-05  5.8472e-05  2.1971e-09  1.0468e-04  9.8895e-05  2.1019e+00  0.0000e+00  3.6374e+02  2.9408e+02  0.0000e+00  0.0000e+00 -1.0800e-01 -2.1069e+00 -1.6421e-01  6.0194e+00  1.6572e-02 -6.3829e-08  6.1836e+00  0:01:31   51
/file/read-macros controlruntime.scm
Loading "././controlruntime.scm"
Done.

> 
  5950  4.1532e-05  4.2571e-05  6.0967e-05  5.8469e-05  2.1963e-09  1.0470e-04  9.8897e-05  2.1019e+00  0.0000e+00  3.6374e+02  2.9408e+02  0.0000e+00  0.0000e+00 -1.0800e-01 -2.1069e+00 -1.6421e-01  6.0194e+00  1.5761e-02 -1.5721e-07  6.1836e+00  0:01:29   50
  5951  4.1556e-05  4.2570e-05  6.0957e-05  5.8465e-05  2.1945e-09  1.0471e-04  9.8894e-05  2.1019e+00  0.0000e+00  3.6374e+02  2.9408e+02  0.0000e+00  0.0000e+00 -1.0800e-01 -2.1069e+00 -1.6421e-01  6.0194e+00  1.3415e-02 -1.8950e-07  6.1836e+00  0:01:27   49

  iter  continuity  x-velocity  y-velocity  z-velocity      energy           k     epsilon  volflow_in      dpm_p2    temp_max     temp_p1     dpm_cor      dpm_or  volflow_co  volflow_or  pressure_c  pressure_o  heat_balan  mass_balan  pressure_d     time/iter
  5952  4.1546e-05  4.2569e-05  6.0947e-05  5.8462e-05  2.1942e-09  1.0473e-04  9.8882e-05  2.1019e+00  0.0000e+00  3.6374e+02  2.9408e+02  0.0000e+00  0.0000e+00 -1.0800e-01 -2.1069e+00 -1.6422e-01  6.0194e+00  1.5192e-02 -1.5733e-07  6.1836e+00  0:01:25   48
  5953  4.1563e-05  4.2568e-05  6.0938e-05  5.8458e-05  2.1943e-09  1.0474e-04  9.8864e-05  2.1019e+00  0.0000e+00  3.6373e+02  2.9408e+02  0.0000e+00  0.0000e+00 -1.0800e-01 -2.1069e+00 -1.6421e-01  6.0194e+00  1.6928e-02 -1.6557e-07  6.1836e+00  0:01:23   47
  5954  4.1536e-05  4.2567e-05  6.0927e-05  5.8455e-05  2.1958e-09  1.0475e-04  9.8844e-05  2.1019e+00  0.0000e+00  3.6373e+02  2.9408e+02  0.0000e+00  0.0000e+00 -1.0800e-01 -2.1069e+00 -1.6422e-01  6.0194e+00  1.8446e-02 -8.3837e-08  6.1836e+00  0:01:22   46
  5955  4.1547e-05  4.2566e-05  6.0917e-05  5.8451e-05  2.1960e-09  1.0477e-04  9.8840e-05  2.1019e+00  0.0000e+00  3.6373e+02  2.9408e+02  0.0000e+00  0.0000e+00 -1.0800e-01 -2.1069e+00 -1.6422e-01  6.0194e+00  1.6641e-02 -4.4837e-08  6.1836e+00  0:01:20   45
  5956  4.1541e-05  4.2565e-05  6.0907e-05  5.8448e-05  2.1975e-09  1.0478e-04  9.8838e-05  2.1019e+00  0.0000e+00  3.6373e+02  2.9408e+02  0.0000e+00  0.0000e+00 -1.0800e-01 -2.1069e+00 -1.6422e-01  6.0194e+00  1.7916e-02 -9.4018e-08  6.1836e+00  0:01:20   44
  5957  4.1554e-05  4.2564e-05  6.0897e-05  5.8445e-05  2.1960e-09  1.0480e-04  9.8837e-05  2.1019e+00  0.0000e+00  3.6373e+02  2.9408e+02  0.0000e+00  0.0000e+00 -1.0800e-01 -2.1069e+00 -1.6422e-01  6.0194e+00  1.6995e-02 -1.1246e-07  6.1836e+00  0:01:18   43
  5958  4.1538e-05  4.2563e-05  6.0888e-05  5.8442e-05  2.1967e-09  1.0481e-04  9.8839e-05  2.1019e+00  0.0000e+00  3.6373e+02  2.9408e+02  0.0000e+00  0.0000e+00 -1.0800e-01 -2.1069e+00 -1.6422e-01  6.0194e+00  1.6011e-02 -1.2701e-07  6.1836e+00  0:01:15   42
  5959  4.1551e-05  4.2563e-05  6.0879e-05  5.8438e-05  2.1928e-09  1.0482e-04  9.8839e-05  2.1019e+00  0.0000e+00  3.6372e+02  2.9408e+02  0.0000e+00  0.0000e+00 -1.0800e-01 -2.1069e+00 -1.6422e-01  6.0194e+00  1.6635e-02 -1.1900e-07  6.1836e+00  0:01:14   41
/file/read-macros controlruntime.scm
Loading "././controlruntime.scm"
Done.

> 
  5960  4.1527e-05  4.2562e-05  6.0868e-05  5.8435e-05  2.1945e-09  1.0484e-04  9.8836e-05  2.1019e+00  0.0000e+00  3.6372e+02  2.9408e+02  0.0000e+00  0.0000e+00 -1.0800e-01 -2.1069e+00 -1.6422e-01  6.0194e+00  1.5878e-02 -1.4949e-07  6.1836e+00  0:01:12   40
  5961  4.1539e-05  4.2561e-05  6.0859e-05  5.8431e-05  2.1932e-09  1.0485e-04  9.8833e-05  2.1019e+00  0.0000e+00  3.6372e+02  2.9408e+02  0.0000e+00  0.0000e+00 -1.0800e-01 -2.1069e+00 -1.6422e-01  6.0194e+00  1.5637e-02 -2.2337e-07  6.1836e+00  0:01:10   39
  5962  4.1500e-05  4.2560e-05  6.0849e-05  5.8428e-05  2.1944e-09  1.0486e-04  9.8828e-05  2.1019e+00  0.0000e+00  3.6372e+02  2.9408e+02  0.0000e+00  0.0000e+00 -1.0800e-01 -2.1069e+00 -1.6422e-01  6.0193e+00  1.6641e-02 -2.5927e-07  6.1836e+00  0:01:08   38

  iter  continuity  x-velocity  y-velocity  z-velocity      energy           k     epsilon  volflow_in      dpm_p2    temp_max     temp_p1     dpm_cor      dpm_or  volflow_co  volflow_or  pressure_c  pressure_o  heat_balan  mass_balan  pressure_d     time/iter
  5963  4.1503e-05  4.2559e-05  6.0839e-05  5.8424e-05  2.1949e-09  1.0488e-04  9.8827e-05  2.1019e+00  0.0000e+00  3.6372e+02  2.9408e+02  0.0000e+00  0.0000e+00 -1.0800e-01 -2.1069e+00 -1.6422e-01  6.0193e+00  1.7475e-02 -2.4117e-07  6.1836e+00  0:01:06   37
  5964  4.1472e-05  4.2558e-05  6.0829e-05  5.8421e-05  2.1942e-09  1.0489e-04  9.8828e-05  2.1019e+00  0.0000e+00  3.6371e+02  2.9408e+02  0.0000e+00  0.0000e+00 -1.0800e-01 -2.1069e+00 -1.6422e-01  6.0193e+00  1.9676e-02 -2.0096e-07  6.1836e+00  0:01:04   36
  5965  4.1487e-05  4.2558e-05  6.0820e-05  5.8417e-05  2.1933e-09  1.0491e-04  9.8834e-05  2.1019e+00  0.0000e+00  3.6371e+02  2.9408e+02  0.0000e+00  0.0000e+00 -1.0800e-01 -2.1069e+00 -1.6423e-01  6.0193e+00  1.8883e-02 -1.0694e-07  6.1836e+00  0:01:02   35
  5966  4.1469e-05  4.2557e-05  6.0810e-05  5.8415e-05  2.1947e-09  1.0492e-04  9.8842e-05  2.1019e+00  0.0000e+00  3.6371e+02  2.9408e+02  0.0000e+00  0.0000e+00 -1.0800e-01 -2.1069e+00 -1.6423e-01  6.0193e+00  1.6567e-02  1.3596e-09  6.1836e+00  0:01:01   34
  5967  4.1478e-05  4.2556e-05  6.0800e-05  5.8411e-05  2.1928e-09  1.0493e-04  9.8847e-05  2.1019e+00  0.0000e+00  3.6371e+02  2.9408e+02  0.0000e+00  0.0000e+00 -1.0800e-01 -2.1069e+00 -1.6422e-01  6.0193e+00  1.7362e-02 -4.4993e-08  6.1836e+00  0:00:59   33
  5968  4.1484e-05  4.2555e-05  6.0790e-05  5.8408e-05  2.1945e-09  1.0495e-04  9.8851e-05  2.1019e+00  0.0000e+00  3.6371e+02  2.9408e+02  0.0000e+00  0.0000e+00 -1.0800e-01 -2.1069e+00 -1.6423e-01  6.0193e+00  1.5707e-02 -7.6846e-08  6.1836e+00  0:00:57   32
  5969  4.1493e-05  4.2554e-05  6.0780e-05  5.8405e-05  2.1931e-09  1.0496e-04  9.8853e-05  2.1019e+00  0.0000e+00  3.6371e+02  2.9408e+02  0.0000e+00  0.0000e+00 -1.0800e-01 -2.1069e+00 -1.6423e-01  6.0193e+00  1.6258e-02 -6.6614e-08  6.1836e+00  0:00:55   31
/file/read-macros controlruntime.scm
Loading "././controlruntime.scm"
Done.

> 
  5970  4.1498e-05  4.2553e-05  6.0770e-05  5.8401e-05  2.1951e-09  1.0498e-04  9.8854e-05  2.1019e+00  0.0000e+00  3.6370e+02  2.9408e+02  0.0000e+00  0.0000e+00 -1.0800e-01 -2.1069e+00 -1.6423e-01  6.0193e+00  1.7280e-02 -6.2139e-08  6.1836e+00  0:00:53   30
  5971  4.1501e-05  4.2552e-05  6.0760e-05  5.8398e-05  2.1941e-09  1.0499e-04  9.8863e-05  2.1019e+00  0.0000e+00  3.6370e+02  2.9408e+02  0.0000e+00  0.0000e+00 -1.0800e-01 -2.1069e+00 -1.6423e-01  6.0193e+00  1.9200e-02 -1.4741e-07  6.1836e+00  0:00:52   29
  5972  4.1490e-05  4.2552e-05  6.0751e-05  5.8395e-05  2.1929e-09  1.0501e-04  9.8871e-05  2.1019e+00  0.0000e+00  3.6370e+02  2.9408e+02  0.0000e+00  0.0000e+00 -1.0800e-01 -2.1069e+00 -1.6423e-01  6.0193e+00  2.0593e-02 -2.1531e-07  6.1836e+00  0:00:50   28
  5973  4.1515e-05  4.2551e-05  6.0741e-05  5.8391e-05  2.1940e-09  1.0502e-04  9.8874e-05  2.1019e+00  0.0000e+00  3.6370e+02  2.9408e+02  0.0000e+00  0.0000e+00 -1.0800e-01 -2.1069e+00 -1.6423e-01  6.0193e+00  1.8769e-02 -2.1677e-07  6.1836e+00  0:00:48   27

  iter  continuity  x-velocity  y-velocity  z-velocity      energy           k     epsilon  volflow_in      dpm_p2    temp_max     temp_p1     dpm_cor      dpm_or  volflow_co  volflow_or  pressure_c  pressure_o  heat_balan  mass_balan  pressure_d     time/iter
  5974  4.1479e-05  4.2550e-05  6.0731e-05  5.8388e-05  2.1926e-09  1.0504e-04  9.8877e-05  2.1019e+00  0.0000e+00  3.6370e+02  2.9408e+02  0.0000e+00  0.0000e+00 -1.0800e-01 -2.1069e+00 -1.6423e-01  6.0193e+00  1.9755e-02 -1.5778e-07  6.1836e+00  0:00:47   26
  5975  4.1499e-05  4.2549e-05  6.0722e-05  5.8384e-05  2.1904e-09  1.0505e-04  9.8876e-05  2.1019e+00  0.0000e+00  3.6370e+02  2.9408e+02  0.0000e+00  0.0000e+00 -1.0800e-01 -2.1069e+00 -1.6424e-01  6.0193e+00  1.8925e-02 -5.9171e-08  6.1836e+00  0:00:45   25
  5976  4.1484e-05  4.2548e-05  6.0712e-05  5.8381e-05  2.1930e-09  1.0507e-04  9.8879e-05  2.1019e+00  0.0000e+00  3.6369e+02  2.9408e+02  0.0000e+00  0.0000e+00 -1.0800e-01 -2.1069e+00 -1.6423e-01  6.0193e+00  1.9733e-02 -2.0559e-08  6.1836e+00  0:00:43   24
  5977  4.1505e-05  4.2548e-05  6.0702e-05  5.8377e-05  2.1929e-09  1.0508e-04  9.8892e-05  2.1019e+00  0.0000e+00  3.6369e+02  2.9408e+02  0.0000e+00  0.0000e+00 -1.0800e-01 -2.1069e+00 -1.6423e-01  6.0193e+00  2.0141e-02 -2.4864e-08  6.1836e+00  0:00:41   23
  5978  4.1483e-05  4.2547e-05  6.0692e-05  5.8374e-05  2.1945e-09  1.0510e-04  9.8901e-05  2.1019e+00  0.0000e+00  3.6369e+02  2.9408e+02  0.0000e+00  0.0000e+00 -1.0800e-01 -2.1069e+00 -1.6423e-01  6.0193e+00  2.1572e-02 -3.9673e-08  6.1836e+00  0:00:39   22
  5979  4.1491e-05  4.2546e-05  6.0682e-05  5.8371e-05  2.1947e-09  1.0511e-04  9.8903e-05  2.1019e+00  0.0000e+00  3.6369e+02  2.9408e+02  0.0000e+00  0.0000e+00 -1.0800e-01 -2.1069e+00 -1.6423e-01  6.0193e+00  2.1275e-02 -3.3589e-08  6.1836e+00  0:00:37   21
/file/read-macros controlruntime.scm
Loading "././controlruntime.scm"
Done.

> 
  5980  4.1477e-05  4.2545e-05  6.0672e-05  5.8368e-05  2.1923e-09  1.0512e-04  9.8901e-05  2.1019e+00  0.0000e+00  3.6369e+02  2.9408e+02  0.0000e+00  0.0000e+00 -1.0800e-01 -2.1069e+00 -1.6423e-01  6.0193e+00  2.1405e-02 -2.4682e-09  6.1836e+00  0:00:36   20
  5981  4.1487e-05  4.2544e-05  6.0663e-05  5.8364e-05  2.1928e-09  1.0514e-04  9.8902e-05  2.1019e+00  0.0000e+00  3.6369e+02  2.9408e+02  0.0000e+00  0.0000e+00 -1.0800e-01 -2.1069e+00 -1.6423e-01  6.0193e+00  1.9339e-02 -2.1233e-08  6.1836e+00  0:00:34   19
  5982  4.1449e-05  4.2544e-05  6.0653e-05  5.8361e-05  2.1897e-09  1.0515e-04  9.8903e-05  2.1019e+00  0.0000e+00  3.6368e+02  2.9408e+02  0.0000e+00  0.0000e+00 -1.0800e-01 -2.1069e+00 -1.6423e-01  6.0193e+00  2.2764e-02 -5.0603e-08  6.1836e+00  0:00:32   18
  5983  4.1455e-05  4.2543e-05  6.0643e-05  5.8357e-05  2.1906e-09  1.0517e-04  9.8909e-05  2.1019e+00  0.0000e+00  3.6368e+02  2.9408e+02  0.0000e+00  0.0000e+00 -1.0800e-01 -2.1069e+00 -1.6423e-01  6.0193e+00  2.3072e-02 -1.2188e-07  6.1836e+00  0:00:30   17
  5984  4.1441e-05  4.2543e-05  6.0634e-05  5.8354e-05  2.1903e-09  1.0518e-04  9.8921e-05  2.1019e+00  0.0000e+00  3.6368e+02  2.9408e+02  0.0000e+00  0.0000e+00 -1.0800e-01 -2.1069e+00 -1.6423e-01  6.0193e+00  2.3146e-02 -1.6156e-07  6.1836e+00  0:00:29   16

  iter  continuity  x-velocity  y-velocity  z-velocity      energy           k     epsilon  volflow_in      dpm_p2    temp_max     temp_p1     dpm_cor      dpm_or  volflow_co  volflow_or  pressure_c  pressure_o  heat_balan  mass_balan  pressure_d     time/iter
  5985  4.1442e-05  4.2542e-05  6.0624e-05  5.8351e-05  2.1917e-09  1.0520e-04  9.8930e-05  2.1019e+00  0.0000e+00  3.6368e+02  2.9408e+02  0.0000e+00  0.0000e+00 -1.0800e-01 -2.1069e+00 -1.6423e-01  6.0193e+00  2.3781e-02 -1.3050e-07  6.1836e+00  0:00:27   15
  5986  4.1429e-05  4.2541e-05  6.0614e-05  5.8347e-05  2.1922e-09  1.0521e-04  9.8932e-05  2.1019e+00  0.0000e+00  3.6368e+02  2.9408e+02  0.0000e+00  0.0000e+00 -1.0800e-01 -2.1069e+00 -1.6424e-01  6.0193e+00  2.4264e-02 -5.5441e-08  6.1836e+00  0:00:25   14
  5987  4.1450e-05  4.2540e-05  6.0604e-05  5.8344e-05  2.1925e-09  1.0522e-04  9.8925e-05  2.1019e+00  0.0000e+00  3.6367e+02  2.9408e+02  0.0000e+00  0.0000e+00 -1.0800e-01 -2.1069e+00 -1.6424e-01  6.0193e+00  2.4411e-02 -4.3036e-08  6.1836e+00  0:00:23   13
  5988  4.1435e-05  4.2539e-05  6.0594e-05  5.8340e-05  2.1939e-09  1.0524e-04  9.8914e-05  2.1019e+00  0.0000e+00  3.6367e+02  2.9408e+02  0.0000e+00  0.0000e+00 -1.0800e-01 -2.1069e+00 -1.6424e-01  6.0193e+00  2.2486e-02 -4.1253e-08  6.1836e+00  0:00:21   12
  5989  4.1450e-05  4.2539e-05  6.0585e-05  5.8337e-05  2.1904e-09  1.0525e-04  9.8915e-05  2.1019e+00  0.0000e+00  3.6367e+02  2.9408e+02  0.0000e+00  0.0000e+00 -1.0800e-01 -2.1069e+00 -1.6424e-01  6.0193e+00  2.2466e-02 -7.9271e-08  6.1836e+00  0:00:20   11
/file/read-macros controlruntime.scm
Loading "././controlruntime.scm"
Done.

> 
  5990  4.1431e-05  4.2538e-05  6.0575e-05  5.8334e-05  2.1912e-09  1.0527e-04  9.8926e-05  2.1019e+00  0.0000e+00  3.6367e+02  2.9408e+02  0.0000e+00  0.0000e+00 -1.0800e-01 -2.1069e+00 -1.6423e-01  6.0193e+00  2.3476e-02 -1.6861e-07  6.1836e+00  0:00:18   10
  5991  4.1436e-05  4.2537e-05  6.0565e-05  5.8331e-05  2.1920e-09  1.0528e-04  9.8947e-05  2.1019e+00  0.0000e+00  3.6367e+02  2.9408e+02  0.0000e+00  0.0000e+00 -1.0800e-01 -2.1069e+00 -1.6424e-01  6.0193e+00  2.3653e-02 -1.7573e-07  6.1836e+00  0:00:16    9
  5992  4.1418e-05  4.2536e-05  6.0555e-05  5.8327e-05  2.1915e-09  1.0530e-04  9.8956e-05  2.1019e+00  0.0000e+00  3.6367e+02  2.9408e+02  0.0000e+00  0.0000e+00 -1.0800e-01 -2.1069e+00 -1.6424e-01  6.0193e+00  2.4499e-02 -1.9297e-07  6.1836e+00  0:00:14    8
  5993  4.1423e-05  4.2535e-05  6.0545e-05  5.8323e-05  2.1936e-09  1.0531e-04  9.8952e-05  2.1019e+00  0.0000e+00  3.6366e+02  2.9408e+02  0.0000e+00  0.0000e+00 -1.0800e-01 -2.1069e+00 -1.6424e-01  6.0193e+00  2.2823e-02 -1.8761e-07  6.1836e+00  0:00:12    7
  5994  4.1407e-05  4.2534e-05  6.0536e-05  5.8320e-05  2.1919e-09  1.0532e-04  9.8935e-05  2.1019e+00  0.0000e+00  3.6366e+02  2.9408e+02  0.0000e+00  0.0000e+00 -1.0800e-01 -2.1069e+00 -1.6424e-01  6.0193e+00  2.4165e-02 -1.8392e-07  6.1836e+00  0:00:11    6
  5995  4.1417e-05  4.2534e-05  6.0526e-05  5.8316e-05  2.1911e-09  1.0534e-04  9.8918e-05  2.1019e+00  0.0000e+00  3.6366e+02  2.9408e+02  0.0000e+00  0.0000e+00 -1.0800e-01 -2.1069e+00 -1.6424e-01  6.0193e+00  2.4668e-02 -1.3590e-07  6.1836e+00  0:00:09    5

  iter  continuity  x-velocity  y-velocity  z-velocity      energy           k     epsilon  volflow_in      dpm_p2    temp_max     temp_p1     dpm_cor      dpm_or  volflow_co  volflow_or  pressure_c  pressure_o  heat_balan  mass_balan  pressure_d     time/iter
  5996  4.1382e-05  4.2533e-05  6.0516e-05  5.8313e-05  2.1907e-09  1.0535e-04  9.8896e-05  2.1019e+00  0.0000e+00  3.6366e+02  2.9408e+02  0.0000e+00  0.0000e+00 -1.0800e-01 -2.1069e+00 -1.6425e-01  6.0193e+00  2.5038e-02 -7.1614e-08  6.1836e+00  0:00:07    4
  5997  4.1383e-05  4.2532e-05  6.0506e-05  5.8309e-05  2.1907e-09  1.0536e-04  9.8874e-05  2.1019e+00  0.0000e+00  3.6365e+02  2.9408e+02  0.0000e+00  0.0000e+00 -1.0800e-01 -2.1069e+00 -1.6425e-01  6.0193e+00  2.6029e-02 -2.9488e-08  6.1836e+00  0:00:05    3
  5998  4.1354e-05  4.2531e-05  6.0496e-05  5.8306e-05  2.1911e-09  1.0538e-04  9.8850e-05  2.1019e+00  0.0000e+00  3.6365e+02  2.9408e+02  0.0000e+00  0.0000e+00 -1.0800e-01 -2.1069e+00 -1.6425e-01  6.0193e+00  2.6556e-02 -1.3972e-08  6.1836e+00  0:00:04    2
  5999  4.1352e-05  4.2531e-05  6.0487e-05  5.8302e-05  2.1919e-09  1.0539e-04  9.8832e-05  2.1019e+00  0.0000e+00  3.6365e+02  2.9408e+02  0.0000e+00  0.0000e+00 -1.0800e-01 -2.1069e+00 -1.6425e-01  6.0193e+00  2.4076e-02 -2.4487e-08  6.1836e+00  0:00:02    1

Writing "| gzip -2cfv > \"OR-COR-3-06000.dat.gz\""...

Done.

/file/read-macros controlruntime.scm
Loading "././controlruntime.scm"
Done.

> 
  6000  4.1318e-05  4.2529e-05  6.0477e-05  5.8299e-05  2.1918e-09  1.0541e-04  9.8810e-05  2.1019e+00  0.0000e+00  3.6365e+02  2.9408e+02  0.0000e+00  0.0000e+00 -1.0800e-01 -2.1069e+00 -1.6424e-01  6.0193e+00  2.5480e-02 -1.0229e-07  6.1836e+00  0:00:00    0


> ; solve/set/time-step 0.01
; solve/dual-time-iterate 2500 50 , , , , 
;
;
; solve/dpm-update
; report/dpm-summary
;
;
;
;
file/confirm-overwrite yes

> ; file/write-case OR-COR.cas.gz yes
file/write-data OR-COR.dat.gz 
Writing "| gzip -2cfv > \"OR-COR.dat.gz\""...

Done.

yes
invalid command [yes]

> ;
;
exit 
Posting ANSYS Product Improvement Program performance data 
Done.
