/pdc/vol/ansys/19.1/v191/fluent/fluent19.1.0/bin/fluent -r19.1.0 3ddp -g -slurm -t 96 -mpi=ibmmpi -pib -i journal.jou
/pdc/vol/ansys/19.1/v191/fluent/fluent19.1.0/cortex/lnamd64/cortex.19.1.0 -f fluent -g -i journal.jou (fluent "3ddp -pinfiniband  -host -r19.1.0 -t96 -mpi=ibmmpi -path/pdc/vol/ansys/19.1/v191/fluent -ssh")
/pdc/vol/ansys/19.1/v191/fluent/fluent19.1.0/bin/fluent -r19.1.0 3ddp -pinfiniband -host -t96 -mpi=ibmmpi -path/pdc/vol/ansys/19.1/v191/fluent -ssh -cx t02n03.pdc.kth.se:40902:40986
Starting /pdc/vol/ansys/19.1/v191/fluent/fluent19.1.0/lnamd64/3ddp_host/fluent.19.1.0 host -cx t02n03.pdc.kth.se:40902:40986 "(list (rpsetvar (QUOTE parallel/function) "fluent 3ddp -flux -node -r19.1.0 -t96 -pinfiniband -mpi=ibmmpi -ssh") (rpsetvar (QUOTE parallel/rhost) "") (rpsetvar (QUOTE parallel/ruser) "") (rpsetvar (QUOTE parallel/nprocs_string) "96") (rpsetvar (QUOTE parallel/auto-spawn?) #t) (rpsetvar (QUOTE parallel/trace-level) 0) (rpsetvar (QUOTE parallel/remote-shell) 1) (rpsetvar (QUOTE parallel/path) "/pdc/vol/ansys/19.1/v191/fluent") (rpsetvar (QUOTE parallel/hostsfile) "") )"

              Welcome to ANSYS Fluent Release 19.1

              Copyright 1987-2018 ANSYS, Inc. All Rights Reserved.
              Unauthorized use, distribution or duplication is prohibited.
              This product is subject to U.S. laws governing export and re-export.
              For full Legal Notice, see documentation.

Build Time: Apr 09 2018 13:46:05 EDT  Build Id: 10123  
 

     --------------------------------------------------------------
     This is an academic version of ANSYS FLUENT. Usage of this product
     license is limited to the terms and conditions specified in your ANSYS
     license form, additional terms section.
     --------------------------------------------------------------
Host spawning Node 0 on machine "t02n03.pdc.kth.se" (unix).
/pdc/vol/ansys/19.1/v191/fluent/fluent19.1.0/bin/fluent -r19.1.0 3ddp -flux -node -t96 -pinfiniband -mpi=ibmmpi -ssh -mport 193.10.157.107:193.10.157.107:35370:0
-- srun ibmmpi launch --
Starting /pdc/vol/ansys/19.1/v191/fluent/fluent19.1.0/multiport/mpi/lnamd64/ibmmpi/bin/mpirun -e MPI_IBV_NO_FORK_SAFE=1 -e MPI_USE_MALLOPT_MMAP_MAX=0 -prot -IBV -e MPI_HASIC_IBV=1 -srun -n 96 /pdc/vol/ansys/19.1/v191/fluent/fluent19.1.0/lnamd64/3ddp_node/fluent_mpi.19.1.0 node -mpiw ibmmpi -pic infiniband -mport 193.10.157.107:193.10.157.107:35370:0
Host 0 -- ip 193.10.157.107 -- ranks 0 - 23
Host 1 -- ip 193.10.157.113 -- ranks 24 - 47
Host 2 -- ip 193.10.157.121 -- ranks 48 - 71
Host 3 -- ip 193.10.157.122 -- ranks 72 - 95

 host | 0    1    2    3
======|=====================
    0 : SHM  IBV  IBV  IBV
    1 : IBV  SHM  IBV  IBV
    2 : IBV  IBV  SHM  IBV
    3 : IBV  IBV  IBV  SHM

 Prot -  All Intra-node communication is: SHM
 Prot -  All Inter-node communication is: IBV


--------------------------------------------------------------------------------------
ID      Hostname           Core   O.S.      PID          Vendor                      
--------------------------------------------------------------------------------------
n72-95  t02n21.pdc.kth.se  24/48  Linux-64  45238-45261  Intel(R) Xeon(R) E5-2690 v3 
n48-71  t02n20.pdc.kth.se  24/48  Linux-64  7399-7422    Intel(R) Xeon(R) E5-2690 v3 
n24-47  t02n09.pdc.kth.se  24/48  Linux-64  17562-17585  Intel(R) Xeon(R) E5-2690 v3 
n0-23   t02n03.pdc.kth.se  24/48  Linux-64  45769-45792  Intel(R) Xeon(R) E5-2690 v3 
host    t02n03.pdc.kth.se         Linux-64  45578        Intel(R) Xeon(R) E5-2690 v3 

MPI Option Selected: ibmmpi
Selected system interconnect: InfiniBand
--------------------------------------------------------------------------------------


Posting ANSYS Product Improvement Program startup data
Done.

Reading journal file journal.jou...

> ;
;
file/read-case OR-COR-4.cas.gz

Multicore SMT processors detected. Processor affinity set!

Reading "\"| gunzip -c \\\"OR-COR-4.cas.gz\\\"\""...

Buffering for file scan...



 9386898 mixed cells, zone 73, binary.
 3946867 mixed cells, zone 74, binary.
 9386898 cell partition ids, zone 73, 96 partitions, binary.
 3946867 cell partition ids, zone 74, 96 partitions, binary.
19350142 mixed interior faces, zone 244, binary.
 8081244 mixed interior faces, zone 245, binary.
     574 mixed wall faces, zone 77, binary.
     574 mixed wall faces, zone  2, binary.
     574 mixed wall faces, zone 78, binary.
     574 mixed wall faces, zone  3, binary.
     574 mixed wall faces, zone 79, binary.
     574 mixed wall faces, zone  4, binary.
     574 mixed wall faces, zone 80, binary.
     574 mixed wall faces, zone  5, binary.
     574 mixed wall faces, zone 81, binary.
     574 mixed wall faces, zone  6, binary.
     898 mixed wall faces, zone 82, binary.
     898 mixed wall faces, zone  7, binary.
     574 mixed wall faces, zone 83, binary.
     574 mixed wall faces, zone  8, binary.
     574 mixed wall faces, zone 84, binary.
     574 mixed wall faces, zone  9, binary.
     574 mixed wall faces, zone 85, binary.
     574 mixed wall faces, zone 10, binary.
     574 mixed wall faces, zone 86, binary.
     574 mixed wall faces, zone 11, binary.
     574 mixed wall faces, zone 87, binary.
     574 mixed wall faces, zone 12, binary.
     574 mixed wall faces, zone 88, binary.
     574 mixed wall faces, zone 13, binary.
     574 mixed wall faces, zone 89, binary.
     574 mixed wall faces, zone 14, binary.
     572 mixed wall faces, zone 90, binary.
     572 mixed wall faces, zone 15, binary.
     574 mixed wall faces, zone 91, binary.
     574 mixed wall faces, zone 16, binary.
     572 mixed wall faces, zone 92, binary.
     572 mixed wall faces, zone 17, binary.
     574 mixed wall faces, zone 93, binary.
     574 mixed wall faces, zone 18, binary.
     572 mixed wall faces, zone 94, binary.
     572 mixed wall faces, zone 19, binary.
     574 mixed wall faces, zone 95, binary.
     574 mixed wall faces, zone 20, binary.
     572 mixed wall faces, zone 96, binary.
     572 mixed wall faces, zone 21, binary.
     574 mixed wall faces, zone 97, binary.
     574 mixed wall faces, zone 22, binary.
     572 mixed wall faces, zone 98, binary.
     572 mixed wall faces, zone 23, binary.
     574 mixed wall faces, zone 99, binary.
     574 mixed wall faces, zone 24, binary.
     572 mixed wall faces, zone 100, binary.
     572 mixed wall faces, zone 25, binary.
     574 mixed wall faces, zone 101, binary.
     574 mixed wall faces, zone 26, binary.
     574 mixed wall faces, zone 102, binary.
     574 mixed wall faces, zone 27, binary.
     572 mixed wall faces, zone 103, binary.
     572 mixed wall faces, zone 28, binary.
     572 mixed wall faces, zone 104, binary.
     572 mixed wall faces, zone 29, binary.
     574 mixed wall faces, zone 105, binary.
     574 mixed wall faces, zone 30, binary.
     572 mixed wall faces, zone 106, binary.
     572 mixed wall faces, zone 31, binary.
     574 mixed wall faces, zone 107, binary.
     574 mixed wall faces, zone 32, binary.
     574 mixed wall faces, zone 108, binary.
     574 mixed wall faces, zone 33, binary.
     574 mixed wall faces, zone 109, binary.
     574 mixed wall faces, zone 34, binary.
     574 mixed wall faces, zone 110, binary.
     574 mixed wall faces, zone 35, binary.
     574 mixed wall faces, zone 111, binary.
     574 mixed wall faces, zone 36, binary.
     574 mixed wall faces, zone 112, binary.
     574 mixed wall faces, zone 37, binary.
     574 mixed wall faces, zone 113, binary.
     574 mixed wall faces, zone 38, binary.
     574 mixed wall faces, zone 114, binary.
     574 mixed wall faces, zone 39, binary.
     574 mixed wall faces, zone 115, binary.
     574 mixed wall faces, zone 40, binary.
     574 mixed wall faces, zone 116, binary.
     574 mixed wall faces, zone 41, binary.
     574 mixed wall faces, zone 117, binary.
     574 mixed wall faces, zone 42, binary.
     574 mixed wall faces, zone 118, binary.
     574 mixed wall faces, zone 43, binary.
     574 mixed wall faces, zone 119, binary.
     574 mixed wall faces, zone 44, binary.
     574 mixed wall faces, zone 120, binary.
     574 mixed wall faces, zone 45, binary.
     574 mixed wall faces, zone 121, binary.
     574 mixed wall faces, zone 46, binary.
     574 mixed wall faces, zone 122, binary.
     574 mixed wall faces, zone 47, binary.
     574 mixed wall faces, zone 123, binary.
     574 mixed wall faces, zone 48, binary.
     574 mixed wall faces, zone 124, binary.
     574 mixed wall faces, zone 49, binary.
     976 mixed wall faces, zone 125, binary.
     976 mixed wall faces, zone 50, binary.
     574 mixed wall faces, zone 126, binary.
     574 mixed wall faces, zone 51, binary.
   42971 triangular velocity-inlet faces, zone 127, binary.
    3750 triangular pressure-outlet faces, zone 128, binary.
    1734 triangular velocity-inlet faces, zone 129, binary.
    1204 triangular pressure-outlet faces, zone 130, binary.
  193965 triangular wall faces, zone 131, binary.
   98169 triangular wall faces, zone 132, binary.
    7945 triangular wall faces, zone 133, binary.
   37956 triangular wall faces, zone 134, binary.
    1826 triangular wall faces, zone 135, binary.
     916 triangular wall faces, zone 136, binary.
    6079 triangular wall faces, zone 137, binary.
     117 triangular wall faces, zone 138, binary.
     574 shadow face pairs, binary. 
     574 shadow face pairs, binary. 
     574 shadow face pairs, binary. 
     574 shadow face pairs, binary. 
     574 shadow face pairs, binary. 
     898 shadow face pairs, binary. 
     574 shadow face pairs, binary. 
     574 shadow face pairs, binary. 
     574 shadow face pairs, binary. 
     574 shadow face pairs, binary. 
     574 shadow face pairs, binary. 
     574 shadow face pairs, binary. 
     574 shadow face pairs, binary. 
     572 shadow face pairs, binary. 
     574 shadow face pairs, binary. 
     572 shadow face pairs, binary. 
     574 shadow face pairs, binary. 
     572 shadow face pairs, binary. 
     574 shadow face pairs, binary. 
     572 shadow face pairs, binary. 
     574 shadow face pairs, binary. 
     572 shadow face pairs, binary. 
     574 shadow face pairs, binary. 
     572 shadow face pairs, binary. 
     574 shadow face pairs, binary. 
     574 shadow face pairs, binary. 
     572 shadow face pairs, binary. 
     572 shadow face pairs, binary. 
     574 shadow face pairs, binary. 
     572 shadow face pairs, binary. 
     574 shadow face pairs, binary. 
     574 shadow face pairs, binary. 
     574 shadow face pairs, binary. 
     574 shadow face pairs, binary. 
     574 shadow face pairs, binary. 
     574 shadow face pairs, binary. 
     574 shadow face pairs, binary. 
     574 shadow face pairs, binary. 
     574 shadow face pairs, binary. 
     574 shadow face pairs, binary. 
     574 shadow face pairs, binary. 
     574 shadow face pairs, binary. 
     574 shadow face pairs, binary. 
     574 shadow face pairs, binary. 
     574 shadow face pairs, binary. 
     574 shadow face pairs, binary. 
     574 shadow face pairs, binary. 
     574 shadow face pairs, binary. 
     976 shadow face pairs, binary. 
     574 shadow face pairs, binary. 
 3001709 nodes, binary.
3001709 node flags, binary.
  348480 "or-inlet-profile" point-profile points, x, y, z, u, v, w.
   80802 "cor-inlet-profile" point-profile points, x, y, z, u, v, w.

Checking the existence of compiled "libudf" UDF library for current platform.
If needed will attempt auto-compilation...





Copied /cfs/klemming/scratch/c/congwang/Fluent/New/predoor/./ave.c to libudf/src
user.udf file is outdated. So, recreating the file for 3ddp_host ...
user.udf file is outdated. So, recreating the file for 3ddp_node ...


Working...
for d in lnamd64/[23]*; do \
  ( \
    cd $d; \
	rm -rf *.{c,h,cpp,hpp}; \
    for f in ../../src/*.{c,h,cpp,hpp} ../../src/makefile ../../src/user.udf; do \
      if [ -f $f -a ! -f `basename $f` ]; then \
        echo "# linking to" $f "in" $d; \
        ln -s $f .; \
      fi; \
    done; \
    echo ""; \
    echo "# building library in" $d; \
    if [ "" = "1" ]; then \
	echo "# using gcc64"; \
	make ARCHC=gcc64 -k>makelog 2>&1; \
    else \
	if [ "" = "1" ]; then \
		echo "# using gcc"; \
		make ARCHC=gcc -k>makelog 2>&1; \
	else \
		make -k>makelog 2>&1; \
	fi; \
    fi;\
    cat makelog; \
  ) \
done
# linking to ../../src/ave.c in lnamd64/3ddp_host

# building library in lnamd64/3ddp_host
make[1]: Entering directory `/cfs/klemming/scratch/c/congwang/Fluent/New/predoor/libudf/lnamd64/3ddp_host'
# Generating udf_names.c because of makefile ave.c
make[2]: Entering directory `/cfs/klemming/scratch/c/congwang/Fluent/New/predoor/libudf/lnamd64/3ddp_host'
make libudf.so "CFLAGS=-D_lnamd64 -D_GNU_SOURCE -fpic -shared -ansi -Wall -O -DPTR_RESTRICT=   " "LDFLAGS=-shared -lm"
make[3]: Entering directory `/cfs/klemming/scratch/c/congwang/Fluent/New/predoor/libudf/lnamd64/3ddp_host'
# Compiling udf_names.o because of 
cc -D_lnamd64 -D_GNU_SOURCE -fpic -shared -ansi -Wall -O -DPTR_RESTRICT=    -I/pdc/vol/ansys/19.1/v191/fluent/fluent19.1.0/`expr "\`pwd\`" : '.*/\(.*\)/[23].*'`/`basename "\`pwd\`"` -I/pdc/vol/ansys/19.1/v191/fluent/fluent19.1.0/src/main -I/pdc/vol/ansys/19.1/v191/fluent/fluent19.1.0/src/addon-wrapper -I/pdc/vol/ansys/19.1/v191/fluent/fluent19.1.0/src/io -I/pdc/vol/ansys/19.1/v191/fluent/fluent19.1.0/src/species -I/pdc/vol/ansys/19.1/v191/fluent/fluent19.1.0/src/pbns -I/pdc/vol/ansys/19.1/v191/fluent/fluent19.1.0/src/numerics -I/pdc/vol/ansys/19.1/v191/fluent/fluent19.1.0/src/sphysics -I/pdc/vol/ansys/19.1/v191/fluent/fluent19.1.0/src/storage -I/pdc/vol/ansys/19.1/v191/fluent/fluent19.1.0/src/mphase -I/pdc/vol/ansys/19.1/v191/fluent/fluent19.1.0/src/bc -I/pdc/vol/ansys/19.1/v191/fluent/fluent19.1.0/src/models -I/pdc/vol/ansys/19.1/v191/fluent/fluent19.1.0/src/material -I/pdc/vol/ansys/19.1/v191/fluent/fluent19.1.0/src/amg -I/pdc/vol/ansys/19.1/v191/fluent/fluent19.1.0/src/util -I/pdc/vol/ansys/19.1/v191/fluent/fluent19.1.0/src/mesh -I/pdc/vol/ansys/19.1/v191/fluent/fluent19.1.0/src/udf -I/pdc/vol/ansys/19.1/v191/fluent/fluent19.1.0/src/ht -I/pdc/vol/ansys/19.1/v191/fluent/fluent19.1.0/src/dx -I/pdc/vol/ansys/19.1/v191/fluent/fluent19.1.0/src/turbulence -I/pdc/vol/ansys/19.1/v191/fluent/fluent19.1.0/src/parallel -I/pdc/vol/ansys/19.1/v191/fluent/fluent19.1.0/src/etc -I/pdc/vol/ansys/19.1/v191/fluent/fluent19.1.0/src/ue -I/pdc/vol/ansys/19.1/v191/fluent/fluent19.1.0/src/dpm -I/pdc/vol/ansys/19.1/v191/fluent/fluent19.1.0/src/dbns -I/pdc/vol/ansys/19.1/v191/fluent/fluent19.1.0/cortex/src -I/pdc/vol/ansys/19.1/v191/fluent/fluent19.1.0/client/src -I/pdc/vol/ansys/19.1/v191/fluent/fluent19.1.0/tgrid/src -I/pdc/vol/ansys/19.1/v191/fluent/fluent19.1.0/multiport/src -I/pdc/vol/ansys/19.1/v191/fluent/fluent19.1.0/multiport/mpi_wrapper/include -I/pdc/vol/ansys/19.1/v191/fluent/fluent19.1.0/multiport/mpi_wrapper/src -I. -c udf_names.c
# Compiling ave.o because of ave.c
cc -D_lnamd64 -D_GNU_SOURCE -fpic -shared -ansi -Wall -O -DPTR_RESTRICT=     -I/pdc/vol/ansys/19.1/v191/fluent/fluent19.1.0/`expr "\`pwd\`" : '.*/\(.*\)/[23].*'`/`basename "\`pwd\`"` -I/pdc/vol/ansys/19.1/v191/fluent/fluent19.1.0/src/main -I/pdc/vol/ansys/19.1/v191/fluent/fluent19.1.0/src/addon-wrapper -I/pdc/vol/ansys/19.1/v191/fluent/fluent19.1.0/src/io -I/pdc/vol/ansys/19.1/v191/fluent/fluent19.1.0/src/species -I/pdc/vol/ansys/19.1/v191/fluent/fluent19.1.0/src/pbns -I/pdc/vol/ansys/19.1/v191/fluent/fluent19.1.0/src/numerics -I/pdc/vol/ansys/19.1/v191/fluent/fluent19.1.0/src/sphysics -I/pdc/vol/ansys/19.1/v191/fluent/fluent19.1.0/src/storage -I/pdc/vol/ansys/19.1/v191/fluent/fluent19.1.0/src/mphase -I/pdc/vol/ansys/19.1/v191/fluent/fluent19.1.0/src/bc -I/pdc/vol/ansys/19.1/v191/fluent/fluent19.1.0/src/models -I/pdc/vol/ansys/19.1/v191/fluent/fluent19.1.0/src/material -I/pdc/vol/ansys/19.1/v191/fluent/fluent19.1.0/src/amg -I/pdc/vol/ansys/19.1/v191/fluent/fluent19.1.0/src/util -I/pdc/vol/ansys/19.1/v191/fluent/fluent19.1.0/src/mesh -I/pdc/vol/ansys/19.1/v191/fluent/fluent19.1.0/src/udf -I/pdc/vol/ansys/19.1/v191/fluent/fluent19.1.0/src/ht -I/pdc/vol/ansys/19.1/v191/fluent/fluent19.1.0/src/dx -I/pdc/vol/ansys/19.1/v191/fluent/fluent19.1.0/src/turbulence -I/pdc/vol/ansys/19.1/v191/fluent/fluent19.1.0/src/parallel -I/pdc/vol/ansys/19.1/v191/fluent/fluent19.1.0/src/etc -I/pdc/vol/ansys/19.1/v191/fluent/fluent19.1.0/src/ue -I/pdc/vol/ansys/19.1/v191/fluent/fluent19.1.0/src/dpm -I/pdc/vol/ansys/19.1/v191/fluent/fluent19.1.0/src/dbns -I/pdc/vol/ansys/19.1/v191/fluent/fluent19.1.0/cortex/src -I/pdc/vol/ansys/19.1/v191/fluent/fluent19.1.0/client/src -I/pdc/vol/ansys/19.1/v191/fluent/fluent19.1.0/tgrid/src -I/pdc/vol/ansys/19.1/v191/fluent/fluent19.1.0/multiport/src -I/pdc/vol/ansys/19.1/v191/fluent/fluent19.1.0/multiport/mpi_wrapper/include -I/pdc/vol/ansys/19.1/v191/fluent/fluent19.1.0/multiport/mpi_wrapper/src -I. -c ave.c
ave.c: In function 'vol_ave_var':
ave.c:36:7: warning: unused variable 'c_vol' [-Wunused-variable]
  real c_vol = 0.0;
       ^
ave.c:35:10: warning: unused variable 'c_var' [-Wunused-variable]
     real c_var = 0.0;
          ^
ave.c:33:7: warning: unused variable 'c_x' [-Wunused-variable]
  real c_x[ND_ND] = {0.0,0.0,0.0}; 
       ^
ave.c:31:13: warning: variable 'domain' set but not used [-Wunused-but-set-variable]
     Domain *domain;
             ^
ave.c:30:10: warning: unused variable 't' [-Wunused-variable]
  Thread *t;
          ^
ave.c:29:10: warning: unused variable 'c' [-Wunused-variable]
   cell_t c;
          ^
ave.c:28:12: warning: unused variable 'f' [-Wunused-variable]
     face_t f;
            ^
# Linking libudf.so because of makefile user.udf udf_names.c udf_names.o ave.o
cc -shared -lm udf_names.o ave.o  -o libudf.so
make[3]: Leaving directory `/cfs/klemming/scratch/c/congwang/Fluent/New/predoor/libudf/lnamd64/3ddp_host'
make[2]: Leaving directory `/cfs/klemming/scratch/c/congwang/Fluent/New/predoor/libudf/lnamd64/3ddp_host'
make[1]: Leaving directory `/cfs/klemming/scratch/c/congwang/Fluent/New/predoor/libudf/lnamd64/3ddp_host'
# linking to ../../src/ave.c in lnamd64/3ddp_node

# building library in lnamd64/3ddp_node
make[1]: Entering directory `/cfs/klemming/scratch/c/congwang/Fluent/New/predoor/libudf/lnamd64/3ddp_node'
# Generating udf_names.c because of makefile ave.c
make[2]: Entering directory `/cfs/klemming/scratch/c/congwang/Fluent/New/predoor/libudf/lnamd64/3ddp_node'
make libudf.so "CFLAGS=-D_lnamd64 -D_GNU_SOURCE -fpic -shared -ansi -Wall -O -DPTR_RESTRICT=   " "LDFLAGS=-shared -lm"
make[3]: Entering directory `/cfs/klemming/scratch/c/congwang/Fluent/New/predoor/libudf/lnamd64/3ddp_node'
# Compiling udf_names.o because of 
cc -D_lnamd64 -D_GNU_SOURCE -fpic -shared -ansi -Wall -O -DPTR_RESTRICT=    -I/pdc/vol/ansys/19.1/v191/fluent/fluent19.1.0/`expr "\`pwd\`" : '.*/\(.*\)/[23].*'`/`basename "\`pwd\`"` -I/pdc/vol/ansys/19.1/v191/fluent/fluent19.1.0/src/main -I/pdc/vol/ansys/19.1/v191/fluent/fluent19.1.0/src/addon-wrapper -I/pdc/vol/ansys/19.1/v191/fluent/fluent19.1.0/src/io -I/pdc/vol/ansys/19.1/v191/fluent/fluent19.1.0/src/species -I/pdc/vol/ansys/19.1/v191/fluent/fluent19.1.0/src/pbns -I/pdc/vol/ansys/19.1/v191/fluent/fluent19.1.0/src/numerics -I/pdc/vol/ansys/19.1/v191/fluent/fluent19.1.0/src/sphysics -I/pdc/vol/ansys/19.1/v191/fluent/fluent19.1.0/src/storage -I/pdc/vol/ansys/19.1/v191/fluent/fluent19.1.0/src/mphase -I/pdc/vol/ansys/19.1/v191/fluent/fluent19.1.0/src/bc -I/pdc/vol/ansys/19.1/v191/fluent/fluent19.1.0/src/models -I/pdc/vol/ansys/19.1/v191/fluent/fluent19.1.0/src/material -I/pdc/vol/ansys/19.1/v191/fluent/fluent19.1.0/src/amg -I/pdc/vol/ansys/19.1/v191/fluent/fluent19.1.0/src/util -I/pdc/vol/ansys/19.1/v191/fluent/fluent19.1.0/src/mesh -I/pdc/vol/ansys/19.1/v191/fluent/fluent19.1.0/src/udf -I/pdc/vol/ansys/19.1/v191/fluent/fluent19.1.0/src/ht -I/pdc/vol/ansys/19.1/v191/fluent/fluent19.1.0/src/dx -I/pdc/vol/ansys/19.1/v191/fluent/fluent19.1.0/src/turbulence -I/pdc/vol/ansys/19.1/v191/fluent/fluent19.1.0/src/parallel -I/pdc/vol/ansys/19.1/v191/fluent/fluent19.1.0/src/etc -I/pdc/vol/ansys/19.1/v191/fluent/fluent19.1.0/src/ue -I/pdc/vol/ansys/19.1/v191/fluent/fluent19.1.0/src/dpm -I/pdc/vol/ansys/19.1/v191/fluent/fluent19.1.0/src/dbns -I/pdc/vol/ansys/19.1/v191/fluent/fluent19.1.0/cortex/src -I/pdc/vol/ansys/19.1/v191/fluent/fluent19.1.0/client/src -I/pdc/vol/ansys/19.1/v191/fluent/fluent19.1.0/tgrid/src -I/pdc/vol/ansys/19.1/v191/fluent/fluent19.1.0/multiport/src -I/pdc/vol/ansys/19.1/v191/fluent/fluent19.1.0/multiport/mpi_wrapper/include -I/pdc/vol/ansys/19.1/v191/fluent/fluent19.1.0/multiport/mpi_wrapper/src -I. -c udf_names.c
# Compiling ave.o because of ave.c
cc -D_lnamd64 -D_GNU_SOURCE -fpic -shared -ansi -Wall -O -DPTR_RESTRICT=     -I/pdc/vol/ansys/19.1/v191/fluent/fluent19.1.0/`expr "\`pwd\`" : '.*/\(.*\)/[23].*'`/`basename "\`pwd\`"` -I/pdc/vol/ansys/19.1/v191/fluent/fluent19.1.0/src/main -I/pdc/vol/ansys/19.1/v191/fluent/fluent19.1.0/src/addon-wrapper -I/pdc/vol/ansys/19.1/v191/fluent/fluent19.1.0/src/io -I/pdc/vol/ansys/19.1/v191/fluent/fluent19.1.0/src/species -I/pdc/vol/ansys/19.1/v191/fluent/fluent19.1.0/src/pbns -I/pdc/vol/ansys/19.1/v191/fluent/fluent19.1.0/src/numerics -I/pdc/vol/ansys/19.1/v191/fluent/fluent19.1.0/src/sphysics -I/pdc/vol/ansys/19.1/v191/fluent/fluent19.1.0/src/storage -I/pdc/vol/ansys/19.1/v191/fluent/fluent19.1.0/src/mphase -I/pdc/vol/ansys/19.1/v191/fluent/fluent19.1.0/src/bc -I/pdc/vol/ansys/19.1/v191/fluent/fluent19.1.0/src/models -I/pdc/vol/ansys/19.1/v191/fluent/fluent19.1.0/src/material -I/pdc/vol/ansys/19.1/v191/fluent/fluent19.1.0/src/amg -I/pdc/vol/ansys/19.1/v191/fluent/fluent19.1.0/src/util -I/pdc/vol/ansys/19.1/v191/fluent/fluent19.1.0/src/mesh -I/pdc/vol/ansys/19.1/v191/fluent/fluent19.1.0/src/udf -I/pdc/vol/ansys/19.1/v191/fluent/fluent19.1.0/src/ht -I/pdc/vol/ansys/19.1/v191/fluent/fluent19.1.0/src/dx -I/pdc/vol/ansys/19.1/v191/fluent/fluent19.1.0/src/turbulence -I/pdc/vol/ansys/19.1/v191/fluent/fluent19.1.0/src/parallel -I/pdc/vol/ansys/19.1/v191/fluent/fluent19.1.0/src/etc -I/pdc/vol/ansys/19.1/v191/fluent/fluent19.1.0/src/ue -I/pdc/vol/ansys/19.1/v191/fluent/fluent19.1.0/src/dpm -I/pdc/vol/ansys/19.1/v191/fluent/fluent19.1.0/src/dbns -I/pdc/vol/ansys/19.1/v191/fluent/fluent19.1.0/cortex/src -I/pdc/vol/ansys/19.1/v191/fluent/fluent19.1.0/client/src -I/pdc/vol/ansys/19.1/v191/fluent/fluent19.1.0/tgrid/src -I/pdc/vol/ansys/19.1/v191/fluent/fluent19.1.0/multiport/src -I/pdc/vol/ansys/19.1/v191/fluent/fluent19.1.0/multiport/mpi_wrapper/include -I/pdc/vol/ansys/19.1/v191/fluent/fluent19.1.0/multiport/mpi_wrapper/src -I. -c ave.c
ave.c: In function 'vol_ave_var':
ave.c:28:12: warning: unused variable 'f' [-Wunused-variable]
     face_t f;
            ^
# Linking libudf.so because of makefile user.udf udf_names.c udf_names.o ave.o
cc -shared -lm udf_names.o ave.o  -o libudf.so
make[3]: Leaving directory `/cfs/klemming/scratch/c/congwang/Fluent/New/predoor/libudf/lnamd64/3ddp_node'
make[2]: Leaving directory `/cfs/klemming/scratch/c/congwang/Fluent/New/predoor/libudf/lnamd64/3ddp_node'
make[1]: Leaving directory `/cfs/klemming/scratch/c/congwang/Fluent/New/predoor/libudf/lnamd64/3ddp_node'

You can also see the 'log'-file in 
the working directory for this compilation history

Done.
Auto-compilation checking of "libudf"...Done

Opening library "/cfs/klemming/scratch/c/congwang/Fluent/New/predoor/libudf"...
Library "/cfs/klemming/scratch/c/congwang/Fluent/New/predoor/libudf/lnamd64/3ddp_host/libudf.so" opened
Opening library "/cfs/klemming/scratch/c/congwang/Fluent/New/predoor/libudf"...
Library "/cfs/klemming/scratch/c/congwang/Fluent/New/predoor/libudf/lnamd64/3ddp_node/libudf.so" opened
	vol_ave_var
Done.

Opening library "/cfs/klemming/scratch/c/congwang/Fluent/New/predoor/libudf"...
Library "/cfs/klemming/scratch/c/congwang/Fluent/New/predoor/libudf/lnamd64/3ddp_node/libudf.so" opened
Opening library "/cfs/klemming/scratch/c/congwang/Fluent/New/predoor/libudf"...
Library "/cfs/klemming/scratch/c/congwang/Fluent/New/predoor/libudf/lnamd64/3ddp_node/libudf.so" opened
Opening library "/cfs/klemming/scratch/c/congwang/Fluent/New/predoor/libudf"...
Library "/cfs/klemming/scratch/c/congwang/Fluent/New/predoor/libudf/lnamd64/3ddp_node/libudf.so" opened
Opening library "/cfs/klemming/scratch/c/congwang/Fluent/New/predoor/libudf"...
Library "/cfs/klemming/scratch/c/congwang/Fluent/New/predoor/libudf/lnamd64/3ddp_node/libudf.so" opened
Opening library "/cfs/klemming/scratch/c/congwang/Fluent/New/predoor/libudf"...
Library "/cfs/klemming/scratch/c/congwang/Fluent/New/predoor/libudf/lnamd64/3ddp_node/libudf.so" opened
Opening library "/cfs/klemming/scratch/c/congwang/Fluent/New/predoor/libudf"...
Library "/cfs/klemming/scratch/c/congwang/Fluent/New/predoor/libudf/lnamd64/3ddp_node/libudf.so" opened
Opening library "/cfs/klemming/scratch/c/congwang/Fluent/New/predoor/libudf"...
Library "/cfs/klemming/scratch/c/congwang/Fluent/New/predoor/libudf/lnamd64/3ddp_node/libudf.so" opened
Opening library "/cfs/klemming/scratch/c/congwang/Fluent/New/predoor/libudf"...
Library "/cfs/klemming/scratch/c/congwang/Fluent/New/predoor/libudf/lnamd64/3ddp_node/libudf.so" opened
Opening library "/cfs/klemming/scratch/c/congwang/Fluent/New/predoor/libudf"...
Library "/cfs/klemming/scratch/c/congwang/Fluent/New/predoor/libudf/lnamd64/3ddp_node/libudf.so" opened
Opening library "/cfs/klemming/scratch/c/congwang/Fluent/New/predoor/libudf"...
Library "/cfs/klemming/scratch/c/congwang/Fluent/New/predoor/libudf/lnamd64/3ddp_node/libudf.so" opened
Opening library "/cfs/klemming/scratch/c/congwang/Fluent/New/predoor/libudf"...
Library "/cfs/klemming/scratch/c/congwang/Fluent/New/predoor/libudf/lnamd64/3ddp_node/libudf.so" opened
Opening library "/cfs/klemming/scratch/c/congwang/Fluent/New/predoor/libudf"...
Library "/cfs/klemming/scratch/c/congwang/Fluent/New/predoor/libudf/lnamd64/3ddp_node/libudf.so" opened
Opening library "/cfs/klemming/scratch/c/congwang/Fluent/New/predoor/libudf"...
Library "/cfs/klemming/scratch/c/congwang/Fluent/New/predoor/libudf/lnamd64/3ddp_node/libudf.so" opened
Opening library "/cfs/klemming/scratch/c/congwang/Fluent/New/predoor/libudf"...
Library "/cfs/klemming/scratch/c/congwang/Fluent/New/predoor/libudf/lnamd64/3ddp_node/libudf.so" opened
Opening library "/cfs/klemming/scratch/c/congwang/Fluent/New/predoor/libudf"...
Library "/cfs/klemming/scratch/c/congwang/Fluent/New/predoor/libudf/lnamd64/3ddp_node/libudf.so" opened
Opening library "/cfs/klemming/scratch/c/congwang/Fluent/New/predoor/libudf"...
Library "/cfs/klemming/scratch/c/congwang/Fluent/New/predoor/libudf/lnamd64/3ddp_node/libudf.so" opened
Opening library "/cfs/klemming/scratch/c/congwang/Fluent/New/predoor/libudf"...
Library "/cfs/klemming/scratch/c/congwang/Fluent/New/predoor/libudf/lnamd64/3ddp_node/libudf.so" opened
Opening library "/cfs/klemming/scratch/c/congwang/Fluent/New/predoor/libudf"...
Library "/cfs/klemming/scratch/c/congwang/Fluent/New/predoor/libudf/lnamd64/3ddp_node/libudf.so" opened
Opening library "/cfs/klemming/scratch/c/congwang/Fluent/New/predoor/libudf"...
Library "/cfs/klemming/scratch/c/congwang/Fluent/New/predoor/libudf/lnamd64/3ddp_node/libudf.so" opened
Opening library "/cfs/klemming/scratch/c/congwang/Fluent/New/predoor/libudf"...
Library "/cfs/klemming/scratch/c/congwang/Fluent/New/predoor/libudf/lnamd64/3ddp_node/libudf.so" opened
Opening library "/cfs/klemming/scratch/c/congwang/Fluent/New/predoor/libudf"...
Library "/cfs/klemming/scratch/c/congwang/Fluent/New/predoor/libudf/lnamd64/3ddp_node/libudf.so" opened
Opening library "/cfs/klemming/scratch/c/congwang/Fluent/New/predoor/libudf"...
Library "/cfs/klemming/scratch/c/congwang/Fluent/New/predoor/libudf/lnamd64/3ddp_node/libudf.so" opened
Opening library "/cfs/klemming/scratch/c/congwang/Fluent/New/predoor/libudf"...
Library "/cfs/klemming/scratch/c/congwang/Fluent/New/predoor/libudf/lnamd64/3ddp_node/libudf.so" opened
Opening library "/cfs/klemming/scratch/c/congwang/Fluent/New/predoor/libudf"...
Library "/cfs/klemming/scratch/c/congwang/Fluent/New/predoor/libudf/lnamd64/3ddp_node/libudf.so" opened
Opening library "/cfs/klemming/scratch/c/congwang/Fluent/New/predoor/libudf"...
Library "/cfs/klemming/scratch/c/congwang/Fluent/New/predoor/libudf/lnamd64/3ddp_node/libudf.so" opened
Opening library "/cfs/klemming/scratch/c/congwang/Fluent/New/predoor/libudf"...
Library "/cfs/klemming/scratch/c/congwang/Fluent/New/predoor/libudf/lnamd64/3ddp_node/libudf.so" opened
Opening library "/cfs/klemming/scratch/c/congwang/Fluent/New/predoor/libudf"...
Library "/cfs/klemming/scratch/c/congwang/Fluent/New/predoor/libudf/lnamd64/3ddp_node/libudf.so" opened
Opening library "/cfs/klemming/scratch/c/congwang/Fluent/New/predoor/libudf"...
Library "/cfs/klemming/scratch/c/congwang/Fluent/New/predoor/libudf/lnamd64/3ddp_node/libudf.so" opened
Opening library "/cfs/klemming/scratch/c/congwang/Fluent/New/predoor/libudf"...
Library "/cfs/klemming/scratch/c/congwang/Fluent/New/predoor/libudf/lnamd64/3ddp_node/libudf.so" opened
Opening library "/cfs/klemming/scratch/c/congwang/Fluent/New/predoor/libudf"...
Library "/cfs/klemming/scratch/c/congwang/Fluent/New/predoor/libudf/lnamd64/3ddp_node/libudf.so" opened
Opening library "/cfs/klemming/scratch/c/congwang/Fluent/New/predoor/libudf"...
Library "/cfs/klemming/scratch/c/congwang/Fluent/New/predoor/libudf/lnamd64/3ddp_node/libudf.so" opened
Opening library "/cfs/klemming/scratch/c/congwang/Fluent/New/predoor/libudf"...
Library "/cfs/klemming/scratch/c/congwang/Fluent/New/predoor/libudf/lnamd64/3ddp_node/libudf.so" opened
Opening library "/cfs/klemming/scratch/c/congwang/Fluent/New/predoor/libudf"...
Library "/cfs/klemming/scratch/c/congwang/Fluent/New/predoor/libudf/lnamd64/3ddp_node/libudf.so" opened
Opening library "/cfs/klemming/scratch/c/congwang/Fluent/New/predoor/libudf"...
Library "/cfs/klemming/scratch/c/congwang/Fluent/New/predoor/libudf/lnamd64/3ddp_node/libudf.so" opened
Opening library "/cfs/klemming/scratch/c/congwang/Fluent/New/predoor/libudf"...
Library "/cfs/klemming/scratch/c/congwang/Fluent/New/predoor/libudf/lnamd64/3ddp_node/libudf.so" opened
Opening library "/cfs/klemming/scratch/c/congwang/Fluent/New/predoor/libudf"...
Library "/cfs/klemming/scratch/c/congwang/Fluent/New/predoor/libudf/lnamd64/3ddp_node/libudf.so" opened
Opening library "/cfs/klemming/scratch/c/congwang/Fluent/New/predoor/libudf"...
Library "/cfs/klemming/scratch/c/congwang/Fluent/New/predoor/libudf/lnamd64/3ddp_node/libudf.so" opened
Opening library "/cfs/klemming/scratch/c/congwang/Fluent/New/predoor/libudf"...
Library "/cfs/klemming/scratch/c/congwang/Fluent/New/predoor/libudf/lnamd64/3ddp_node/libudf.so" opened
Opening library "/cfs/klemming/scratch/c/congwang/Fluent/New/predoor/libudf"...
Library "/cfs/klemming/scratch/c/congwang/Fluent/New/predoor/libudf/lnamd64/3ddp_node/libudf.so" opened
Opening library "/cfs/klemming/scratch/c/congwang/Fluent/New/predoor/libudf"...
Library "/cfs/klemming/scratch/c/congwang/Fluent/New/predoor/libudf/lnamd64/3ddp_node/libudf.so" opened
Opening library "/cfs/klemming/scratch/c/congwang/Fluent/New/predoor/libudf"...
Library "/cfs/klemming/scratch/c/congwang/Fluent/New/predoor/libudf/lnamd64/3ddp_node/libudf.so" opened
Opening library "/cfs/klemming/scratch/c/congwang/Fluent/New/predoor/libudf"...
Library "/cfs/klemming/scratch/c/congwang/Fluent/New/predoor/libudf/lnamd64/3ddp_node/libudf.so" opened
Opening library "/cfs/klemming/scratch/c/congwang/Fluent/New/predoor/libudf"...
Library "/cfs/klemming/scratch/c/congwang/Fluent/New/predoor/libudf/lnamd64/3ddp_node/libudf.so" opened
Opening library "/cfs/klemming/scratch/c/congwang/Fluent/New/predoor/libudf"...
Library "/cfs/klemming/scratch/c/congwang/Fluent/New/predoor/libudf/lnamd64/3ddp_node/libudf.so" opened
Opening library "/cfs/klemming/scratch/c/congwang/Fluent/New/predoor/libudf"...
Library "/cfs/klemming/scratch/c/congwang/Fluent/New/predoor/libudf/lnamd64/3ddp_node/libudf.so" opened
Opening library "/cfs/klemming/scratch/c/congwang/Fluent/New/predoor/libudf"...
Library "/cfs/klemming/scratch/c/congwang/Fluent/New/predoor/libudf/lnamd64/3ddp_node/libudf.so" opened
Opening library "/cfs/klemming/scratch/c/congwang/Fluent/New/predoor/libudf"...
Library "/cfs/klemming/scratch/c/congwang/Fluent/New/predoor/libudf/lnamd64/3ddp_node/libudf.so" opened
Opening library "/cfs/klemming/scratch/c/congwang/Fluent/New/predoor/libudf"...
Library "/cfs/klemming/scratch/c/congwang/Fluent/New/predoor/libudf/lnamd64/3ddp_node/libudf.so" opened
Opening library "/cfs/klemming/scratch/c/congwang/Fluent/New/predoor/libudf"...
Library "/cfs/klemming/scratch/c/congwang/Fluent/New/predoor/libudf/lnamd64/3ddp_node/libudf.so" opened
Opening library "/cfs/klemming/scratch/c/congwang/Fluent/New/predoor/libudf"...
Library "/cfs/klemming/scratch/c/congwang/Fluent/New/predoor/libudf/lnamd64/3ddp_node/libudf.so" opened
Opening library "/cfs/klemming/scratch/c/congwang/Fluent/New/predoor/libudf"...
Library "/cfs/klemming/scratch/c/congwang/Fluent/New/predoor/libudf/lnamd64/3ddp_node/libudf.so" opened
Opening library "/cfs/klemming/scratch/c/congwang/Fluent/New/predoor/libudf"...
Library "/cfs/klemming/scratch/c/congwang/Fluent/New/predoor/libudf/lnamd64/3ddp_node/libudf.so" opened
Opening library "/cfs/klemming/scratch/c/congwang/Fluent/New/predoor/libudf"...
Library "/cfs/klemming/scratch/c/congwang/Fluent/New/predoor/libudf/lnamd64/3ddp_node/libudf.so" opened
Opening library "/cfs/klemming/scratch/c/congwang/Fluent/New/predoor/libudf"...
Library "/cfs/klemming/scratch/c/congwang/Fluent/New/predoor/libudf/lnamd64/3ddp_node/libudf.so" opened
Opening library "/cfs/klemming/scratch/c/congwang/Fluent/New/predoor/libudf"...
Library "/cfs/klemming/scratch/c/congwang/Fluent/New/predoor/libudf/lnamd64/3ddp_node/libudf.so" opened
Opening library "/cfs/klemming/scratch/c/congwang/Fluent/New/predoor/libudf"...
Library "/cfs/klemming/scratch/c/congwang/Fluent/New/predoor/libudf/lnamd64/3ddp_node/libudf.so" opened
Opening library "/cfs/klemming/scratch/c/congwang/Fluent/New/predoor/libudf"...
Library "/cfs/klemming/scratch/c/congwang/Fluent/New/predoor/libudf/lnamd64/3ddp_node/libudf.so" opened
Opening library "/cfs/klemming/scratch/c/congwang/Fluent/New/predoor/libudf"...
Library "/cfs/klemming/scratch/c/congwang/Fluent/New/predoor/libudf/lnamd64/3ddp_node/libudf.so" opened
Opening library "/cfs/klemming/scratch/c/congwang/Fluent/New/predoor/libudf"...
Library "/cfs/klemming/scratch/c/congwang/Fluent/New/predoor/libudf/lnamd64/3ddp_node/libudf.so" opened
Opening library "/cfs/klemming/scratch/c/congwang/Fluent/New/predoor/libudf"...
Library "/cfs/klemming/scratch/c/congwang/Fluent/New/predoor/libudf/lnamd64/3ddp_node/libudf.so" opened
Opening library "/cfs/klemming/scratch/c/congwang/Fluent/New/predoor/libudf"...
Library "/cfs/klemming/scratch/c/congwang/Fluent/New/predoor/libudf/lnamd64/3ddp_node/libudf.so" opened
Opening library "/cfs/klemming/scratch/c/congwang/Fluent/New/predoor/libudf"...
Library "/cfs/klemming/scratch/c/congwang/Fluent/New/predoor/libudf/lnamd64/3ddp_node/libudf.so" opened
Opening library "/cfs/klemming/scratch/c/congwang/Fluent/New/predoor/libudf"...
Library "/cfs/klemming/scratch/c/congwang/Fluent/New/predoor/libudf/lnamd64/3ddp_node/libudf.so" opened
Opening library "/cfs/klemming/scratch/c/congwang/Fluent/New/predoor/libudf"...
Library "/cfs/klemming/scratch/c/congwang/Fluent/New/predoor/libudf/lnamd64/3ddp_node/libudf.so" opened
Opening library "/cfs/klemming/scratch/c/congwang/Fluent/New/predoor/libudf"...
Library "/cfs/klemming/scratch/c/congwang/Fluent/New/predoor/libudf/lnamd64/3ddp_node/libudf.so" opened
Opening library "/cfs/klemming/scratch/c/congwang/Fluent/New/predoor/libudf"...
Library "/cfs/klemming/scratch/c/congwang/Fluent/New/predoor/libudf/lnamd64/3ddp_node/libudf.so" opened
Opening library "/cfs/klemming/scratch/c/congwang/Fluent/New/predoor/libudf"...
Library "/cfs/klemming/scratch/c/congwang/Fluent/New/predoor/libudf/lnamd64/3ddp_node/libudf.so" opened
Opening library "/cfs/klemming/scratch/c/congwang/Fluent/New/predoor/libudf"...
Library "/cfs/klemming/scratch/c/congwang/Fluent/New/predoor/libudf/lnamd64/3ddp_node/libudf.so" opened
Opening library "/cfs/klemming/scratch/c/congwang/Fluent/New/predoor/libudf"...
Library "/cfs/klemming/scratch/c/congwang/Fluent/New/predoor/libudf/lnamd64/3ddp_node/libudf.so" opened
Opening library "/cfs/klemming/scratch/c/congwang/Fluent/New/predoor/libudf"...
Library "/cfs/klemming/scratch/c/congwang/Fluent/New/predoor/libudf/lnamd64/3ddp_node/libudf.so" opened
Opening library "/cfs/klemming/scratch/c/congwang/Fluent/New/predoor/libudf"...
Library "/cfs/klemming/scratch/c/congwang/Fluent/New/predoor/libudf/lnamd64/3ddp_node/libudf.so" opened
Opening library "/cfs/klemming/scratch/c/congwang/Fluent/New/predoor/libudf"...
Library "/cfs/klemming/scratch/c/congwang/Fluent/New/predoor/libudf/lnamd64/3ddp_node/libudf.so" opened
Opening library "/cfs/klemming/scratch/c/congwang/Fluent/New/predoor/libudf"...
Library "/cfs/klemming/scratch/c/congwang/Fluent/New/predoor/libudf/lnamd64/3ddp_node/libudf.so" opened
Opening library "/cfs/klemming/scratch/c/congwang/Fluent/New/predoor/libudf"...
Library "/cfs/klemming/scratch/c/congwang/Fluent/New/predoor/libudf/lnamd64/3ddp_node/libudf.so" opened
Opening library "/cfs/klemming/scratch/c/congwang/Fluent/New/predoor/libudf"...
Library "/cfs/klemming/scratch/c/congwang/Fluent/New/predoor/libudf/lnamd64/3ddp_node/libudf.so" opened
Opening library "/cfs/klemming/scratch/c/congwang/Fluent/New/predoor/libudf"...
Library "/cfs/klemming/scratch/c/congwang/Fluent/New/predoor/libudf/lnamd64/3ddp_node/libudf.so" opened
Opening library "/cfs/klemming/scratch/c/congwang/Fluent/New/predoor/libudf"...
Library "/cfs/klemming/scratch/c/congwang/Fluent/New/predoor/libudf/lnamd64/3ddp_node/libudf.so" opened
Opening library "/cfs/klemming/scratch/c/congwang/Fluent/New/predoor/libudf"...
Library "/cfs/klemming/scratch/c/congwang/Fluent/New/predoor/libudf/lnamd64/3ddp_node/libudf.so" opened
Opening library "/cfs/klemming/scratch/c/congwang/Fluent/New/predoor/libudf"...
Library "/cfs/klemming/scratch/c/congwang/Fluent/New/predoor/libudf/lnamd64/3ddp_node/libudf.so" opened
Opening library "/cfs/klemming/scratch/c/congwang/Fluent/New/predoor/libudf"...
Library "/cfs/klemming/scratch/c/congwang/Fluent/New/predoor/libudf/lnamd64/3ddp_node/libudf.so" opened
Opening library "/cfs/klemming/scratch/c/congwang/Fluent/New/predoor/libudf"...
Library "/cfs/klemming/scratch/c/congwang/Fluent/New/predoor/libudf/lnamd64/3ddp_node/libudf.so" opened
Opening library "/cfs/klemming/scratch/c/congwang/Fluent/New/predoor/libudf"...
Library "/cfs/klemming/scratch/c/congwang/Fluent/New/predoor/libudf/lnamd64/3ddp_node/libudf.so" opened
Opening library "/cfs/klemming/scratch/c/congwang/Fluent/New/predoor/libudf"...
Library "/cfs/klemming/scratch/c/congwang/Fluent/New/predoor/libudf/lnamd64/3ddp_node/libudf.so" opened
Opening library "/cfs/klemming/scratch/c/congwang/Fluent/New/predoor/libudf"...
Library "/cfs/klemming/scratch/c/congwang/Fluent/New/predoor/libudf/lnamd64/3ddp_node/libudf.so" opened
Opening library "/cfs/klemming/scratch/c/congwang/Fluent/New/predoor/libudf"...
Library "/cfs/klemming/scratch/c/congwang/Fluent/New/predoor/libudf/lnamd64/3ddp_node/libudf.so" opened
Opening library "/cfs/klemming/scratch/c/congwang/Fluent/New/predoor/libudf"...
Library "/cfs/klemming/scratch/c/congwang/Fluent/New/predoor/libudf/lnamd64/3ddp_node/libudf.so" opened
Opening library "/cfs/klemming/scratch/c/congwang/Fluent/New/predoor/libudf"...
Library "/cfs/klemming/scratch/c/congwang/Fluent/New/predoor/libudf/lnamd64/3ddp_node/libudf.so" opened
Opening library "/cfs/klemming/scratch/c/congwang/Fluent/New/predoor/libudf"...
Library "/cfs/klemming/scratch/c/congwang/Fluent/New/predoor/libudf/lnamd64/3ddp_node/libudf.so" opened
Opening library "/cfs/klemming/scratch/c/congwang/Fluent/New/predoor/libudf"...
Library "/cfs/klemming/scratch/c/congwang/Fluent/New/predoor/libudf/lnamd64/3ddp_node/libudf.so" opened
Opening library "/cfs/klemming/scratch/c/congwang/Fluent/New/predoor/libudf"...
Library "/cfs/klemming/scratch/c/congwang/Fluent/New/predoor/libudf/lnamd64/3ddp_node/libudf.so" opened
Opening library "/cfs/klemming/scratch/c/congwang/Fluent/New/predoor/libudf"...
Library "/cfs/klemming/scratch/c/congwang/Fluent/New/predoor/libudf/lnamd64/3ddp_node/libudf.so" opened
Opening library "/cfs/klemming/scratch/c/congwang/Fluent/New/predoor/libudf"...
Library "/cfs/klemming/scratch/c/congwang/Fluent/New/predoor/libudf/lnamd64/3ddp_node/libudf.so" opened
Opening library "/cfs/klemming/scratch/c/congwang/Fluent/New/predoor/libudf"...
Library "/cfs/klemming/scratch/c/congwang/Fluent/New/predoor/libudf/lnamd64/3ddp_node/libudf.so" opened
Opening library "/cfs/klemming/scratch/c/congwang/Fluent/New/predoor/libudf"...
Library "/cfs/klemming/scratch/c/congwang/Fluent/New/predoor/libudf/lnamd64/3ddp_node/libudf.so" opened
Opening library "/cfs/klemming/scratch/c/congwang/Fluent/New/predoor/libudf"...
Library "/cfs/klemming/scratch/c/congwang/Fluent/New/predoor/libudf/lnamd64/3ddp_node/libudf.so" opened
Building...
     mesh
	distributing mesh
		pairs..................................................,
		parts..................................................,
		faces..................................................,
		nodes..................................................,
		shadow nodes..................................................,
		cells..................................................,
        bandwidth reduction using Reverse Cuthill-McKee: 140133/2911 = 48.1391
     materials,
     interface,
     domains,
	mixture
     zones,
	or_equip
	or_lamp_heat
	or_lamp_wall
	or_persons
	or_table
	cor_wall
	or_wall
	cor_outlet
	cor_inlet
	or_inlet
	interior-cor
	interior-or
	xdoor-d01
	xdoor-d01-shadow
	xdoor-d02
	xdoor-d02-shadow
	xdoor-d03
	xdoor-d03-shadow
	xdoor-d04
	xdoor-d04-shadow
	xdoor-d05
	xdoor-d05-shadow
	xdoor-d06
	xdoor-d06-shadow
	xdoor-d07
	xdoor-d07-shadow
	xdoor-d08
	xdoor-d08-shadow
	xdoor-d09
	xdoor-d09-shadow
	xdoor-d10
	xdoor-d10-shadow
	xdoor-d11
	xdoor-d11-shadow
	xdoor-d12
	xdoor-d12-shadow
	xdoor-d13
	xdoor-d13-shadow
	xdoor-d14
	xdoor-d14-shadow
	xdoor-d15
	xdoor-d15-shadow
	xdoor-d16
	xdoor-d16-shadow
	xdoor-d17
	xdoor-d17-shadow
	xdoor-d18
	xdoor-d18-shadow
	xdoor-d19
	xdoor-d19-shadow
	xdoor-d20
	xdoor-d20-shadow
	xdoor-d21
	xdoor-d21-shadow
	xdoor-d22
	xdoor-d22-shadow
	xdoor-d23
	xdoor-d23-shadow
	xdoor-d24
	xdoor-d24-shadow
	xdoor-d25
	xdoor-d25-shadow
	xdoor-d26
	xdoor-d26-shadow
	xdoor-d27
	xdoor-d27-shadow
	xdoor-d28
	xdoor-d28-shadow
	xdoor-d29
	xdoor-d29-shadow
	xdoor-d30
	xdoor-d30-shadow
	xdoor-d31
	xdoor-d31-shadow
	xdoor-d32
	xdoor-d32-shadow
	xdoor-d33
	xdoor-d33-shadow
	xdoor-d34
	xdoor-d34-shadow
	xdoor-d35
	xdoor-d35-shadow
	xdoor-d36
	xdoor-d36-shadow
	xdoor-d37
	xdoor-d37-shadow
	xdoor-d38
	xdoor-d38-shadow
	xdoor-d39
	xdoor-d39-shadow
	xdoor-d40
	xdoor-d40-shadow
	xdoor-d41
	xdoor-d41-shadow
	xdoor-d42
	xdoor-d42-shadow
	xdoor-d43
	xdoor-d43-shadow
	xdoor-d44
	xdoor-d44-shadow
	xdoor-d45
	xdoor-d45-shadow
	xdoor-d46
	xdoor-d46-shadow
	xdoor-d47
	xdoor-d47-shadow
	xdoor-d48
	xdoor-d48-shadow
	xdoor-d49
	xdoor-d49-shadow
	xdoor-d50
	xdoor-d50-shadow
	or_outlet
	sampler
	cor
	or
Skipping variable seco-breakup-madabhushi-c0 for injection injection-1
Skipping variable seco-breakup-madabhushi-ligament-factor for injection injection-1
Skipping variable start-at-flow-time-in-unsteady-inj-file for injection injection-1
Skipping variable interval-to-repeat-in-unsteady-inj-file for injection injection-1
Skipping variable seco-breakup-madabhushi-c0 for injection injection-1
Skipping variable seco-breakup-madabhushi-ligament-factor for injection injection-1
Skipping variable start-at-flow-time-in-unsteady-inj-file for injection injection-1
Skipping variable interval-to-repeat-in-unsteady-inj-file for injection injection-1
Skipping variable seco-breakup-madabhushi-c0 for injection injection-1
Skipping variable seco-breakup-madabhushi-ligament-factor for injection injection-1
Skipping variable start-at-flow-time-in-unsteady-inj-file for injection injection-1
Skipping variable interval-to-repeat-in-unsteady-inj-file for injection injection-1
     parallel,
Done.

> file/read-data OR-COR-4-01200.dat.gz

Reading "\"| gunzip -c \\\"OR-COR-4-01200.dat.gz\\\"\""...




reading 464189 particles for injection injection-1.
 
 read 464189 particles for injection injection-1.
 locating particles on compute nodes...
all particles successfully re-located!
Parallel variables...
Done.

> ;
;
; 
;
; solve/set/under-relaxation pressure 0.7 mom 0.3 temperature 1.0  k 0.8  epsilon 0.8
;
; solve/monitors/residual/convergence-criteria 1e-5 , , , , , , , , , , , , ;
;
;
; define/boundary-conditions/outlet-vent , , , , , , , , , , , , , , ,   5.0
;
;
;
file/auto-save/case-frequency if-case-is-modified

> file/auto-save/data-frequency 500

> file/auto-save/root-name OR-COR.gz

> ;
;
;
;
; solve/initialize/initialize-flow
; solve/initialize/hyb-initialization
; solve/initialize/fmg-initialization yes
;
;
;
;
; solve/iterate 6000
solve/set/time-step 0.2

> solve/dual-time-iterate 2500 50 
Updating solution at time level N... done.
Injecting 1734 particle parcels with mass 2e-11 at t = 240

Advancing DPM injections ....
number tracked = 465923, escaped = 172, aborted = 0, trapped = 1515, evaporated = 0, incomplete = 0, incomplete_parallel = 0

  iter     time/iter
Volume Averaged Variable at (0.000000 0.100000 1.300000) is 0.000000e+00
  step  flow-time  volflow_or  volflow_in volflow_cor     temp_p1    temp_max pressure_or pressure_dif pressure_cor mass_balance heat_balance      dpm_p2      dpm_or     dpm_cor
  1201  2.4020e+02 -2.1069e+00  2.1019e+00 -1.0800e-01  2.9410e+02  3.6344e+02  4.8395e+00  5.0040e+00 -1.6447e-01  3.8150e-08  1.1514e-01  0.0000e+00  0.0000e+00  8.0235e-11
Flow time = 240.2s, time step = 1201
2499 more time steps

Updating solution at time level N... done.
Injecting 1734 particle parcels with mass 2e-11 at t = 240.2

Advancing DPM injections ....
number tracked = 465970, escaped = 199, aborted = 0, trapped = 1486, evaporated = 0, incomplete = 0, incomplete_parallel = 0

  iter     time/iter
Volume Averaged Variable at (0.000000 0.100000 1.300000) is 0.000000e+00
  step  flow-time  volflow_or  volflow_in volflow_cor     temp_p1    temp_max pressure_or pressure_dif pressure_cor mass_balance heat_balance      dpm_p2      dpm_or     dpm_cor
  1202  2.4040e+02 -2.1069e+00  2.1019e+00 -1.0800e-01  2.9410e+02  3.6344e+02  4.8395e+00  5.0040e+00 -1.6447e-01  3.8150e-08  1.1514e-01  0.0000e+00  0.0000e+00  8.0245e-11
Flow time = 240.4s, time step = 1202
2498 more time steps

Updating solution at time level N... done.
Injecting 1734 particle parcels with mass 2e-11 at t = 240.4

Advancing DPM injections ....
number tracked = 466019, escaped = 204, aborted = 0, trapped = 1482, evaporated = 0, incomplete = 0, incomplete_parallel = 0

  iter     time/iter
Volume Averaged Variable at (0.000000 0.100000 1.300000) is 0.000000e+00
  step  flow-time  volflow_or  volflow_in volflow_cor     temp_p1    temp_max pressure_or pressure_dif pressure_cor mass_balance heat_balance      dpm_p2      dpm_or     dpm_cor
  1203  2.4060e+02 -2.1069e+00  2.1019e+00 -1.0800e-01  2.9410e+02  3.6344e+02  4.8395e+00  5.0040e+00 -1.6447e-01  3.8150e-08  1.1514e-01  0.0000e+00  0.0000e+00  8.0256e-11
Flow time = 240.6s, time step = 1203
2497 more time steps

Updating solution at time level N... done.
Injecting 1734 particle parcels with mass 2e-11 at t = 240.6

Advancing DPM injections ....
number tracked = 466067, escaped = 206, aborted = 0, trapped = 1565, evaporated = 0, incomplete = 0, incomplete_parallel = 0

  iter     time/iter
Volume Averaged Variable at (0.000000 0.100000 1.300000) is 0.000000e+00
  step  flow-time  volflow_or  volflow_in volflow_cor     temp_p1    temp_max pressure_or pressure_dif pressure_cor mass_balance heat_balance      dpm_p2      dpm_or     dpm_cor
  1204  2.4080e+02 -2.1069e+00  2.1019e+00 -1.0800e-01  2.9410e+02  3.6344e+02  4.8395e+00  5.0040e+00 -1.6447e-01  3.8150e-08  1.1514e-01  0.0000e+00  0.0000e+00  8.0255e-11
Flow time = 240.8s, time step = 1204
2496 more time steps

Updating solution at time level N... done.
Injecting 1734 particle parcels with mass 2e-11 at t = 240.8

Advancing DPM injections ....
number tracked = 466030, escaped = 175, aborted = 0, trapped = 1486, evaporated = 0, incomplete = 0, incomplete_parallel = 0

  iter     time/iter
Volume Averaged Variable at (0.000000 0.100000 1.300000) is 0.000000e+00
  step  flow-time  volflow_or  volflow_in volflow_cor     temp_p1    temp_max pressure_or pressure_dif pressure_cor mass_balance heat_balance      dpm_p2      dpm_or     dpm_cor
  1205  2.4100e+02 -2.1069e+00  2.1019e+00 -1.0800e-01  2.9410e+02  3.6344e+02  4.8395e+00  5.0040e+00 -1.6447e-01  3.8150e-08  1.1514e-01  0.0000e+00  0.0000e+00  8.0266e-11
Flow time = 241s, time step = 1205
2495 more time steps

Updating solution at time level N... done.
Injecting 1734 particle parcels with mass 2e-11 at t = 241

Advancing DPM injections ....
number tracked = 466103, escaped = 177, aborted = 0, trapped = 1510, evaporated = 0, incomplete = 0, incomplete_parallel = 0

  iter     time/iter
Volume Averaged Variable at (0.000000 0.100000 1.300000) is 0.000000e+00
  step  flow-time  volflow_or  volflow_in volflow_cor     temp_p1    temp_max pressure_or pressure_dif pressure_cor mass_balance heat_balance      dpm_p2      dpm_or     dpm_cor
  1206  2.4120e+02 -2.1069e+00  2.1019e+00 -1.0800e-01  2.9410e+02  3.6344e+02  4.8395e+00  5.0040e+00 -1.6447e-01  3.8150e-08  1.1514e-01  0.0000e+00  0.0000e+00  8.0276e-11
Flow time = 241.2s, time step = 1206
2494 more time steps

Updating solution at time level N... done.
Injecting 1734 particle parcels with mass 2e-11 at t = 241.2

Advancing DPM injections ....
number tracked = 466150, escaped = 190, aborted = 0, trapped = 1551, evaporated = 0, incomplete = 0, incomplete_parallel = 0

  iter     time/iter
Volume Averaged Variable at (0.000000 0.100000 1.300000) is 0.000000e+00
  step  flow-time  volflow_or  volflow_in volflow_cor     temp_p1    temp_max pressure_or pressure_dif pressure_cor mass_balance heat_balance      dpm_p2      dpm_or     dpm_cor
  1207  2.4140e+02 -2.1069e+00  2.1019e+00 -1.0800e-01  2.9410e+02  3.6344e+02  4.8395e+00  5.0040e+00 -1.6447e-01  3.8150e-08  1.1514e-01  0.0000e+00  0.0000e+00  8.0279e-11
Flow time = 241.4s, time step = 1207
2493 more time steps

Updating solution at time level N... done.
Injecting 1734 particle parcels with mass 2e-11 at t = 241.4

Advancing DPM injections ....
number tracked = 466143, escaped = 162, aborted = 0, trapped = 1541, evaporated = 0, incomplete = 0, incomplete_parallel = 0

  iter     time/iter
Volume Averaged Variable at (0.000000 0.100000 1.300000) is 0.000000e+00
  step  flow-time  volflow_or  volflow_in volflow_cor     temp_p1    temp_max pressure_or pressure_dif pressure_cor mass_balance heat_balance      dpm_p2      dpm_or     dpm_cor
  1208  2.4160e+02 -2.1069e+00  2.1019e+00 -1.0800e-01  2.9410e+02  3.6344e+02  4.8395e+00  5.0040e+00 -1.6447e-01  3.8150e-08  1.1514e-01  0.0000e+00  0.0000e+00  8.0280e-11
Flow time = 241.6s, time step = 1208
2492 more time steps

Updating solution at time level N... done.
Injecting 1734 particle parcels with mass 2e-11 at t = 241.6

Advancing DPM injections ....
number tracked = 466174, escaped = 178, aborted = 0, trapped = 1529, evaporated = 0, incomplete = 0, incomplete_parallel = 0

  iter     time/iter
Volume Averaged Variable at (0.000000 0.100000 1.300000) is 0.000000e+00
  step  flow-time  volflow_or  volflow_in volflow_cor     temp_p1    temp_max pressure_or pressure_dif pressure_cor mass_balance heat_balance      dpm_p2      dpm_or     dpm_cor
  1209  2.4180e+02 -2.1069e+00  2.1019e+00 -1.0800e-01  2.9410e+02  3.6344e+02  4.8395e+00  5.0040e+00 -1.6447e-01  3.8150e-08  1.1514e-01  0.0000e+00  0.0000e+00  8.0289e-11
Flow time = 241.8s, time step = 1209
2491 more time steps

Updating solution at time level N... done.
Injecting 1734 particle parcels with mass 2e-11 at t = 241.8

Advancing DPM injections ....
number tracked = 466201, escaped = 185, aborted = 0, trapped = 1538, evaporated = 0, incomplete = 0, incomplete_parallel = 0

  iter     time/iter
Volume Averaged Variable at (0.000000 0.100000 1.300000) is 0.000000e+00
/file/read-macros controlruntime.scm
Loading "././controlruntime.scm"
Done.

> 
  step  flow-time  volflow_or  volflow_in volflow_cor     temp_p1    temp_max pressure_or pressure_dif pressure_cor mass_balance heat_balance      dpm_p2      dpm_or     dpm_cor
  1210  2.4200e+02 -2.1069e+00  2.1019e+00 -1.0800e-01  2.9410e+02  3.6344e+02  4.8395e+00  5.0040e+00 -1.6447e-01  3.8150e-08  1.1514e-01  0.0000e+00  0.0000e+00  8.0290e-11
Flow time = 242s, time step = 1210
2490 more time steps

Updating solution at time level N... done.
Injecting 1734 particle parcels with mass 2e-11 at t = 242

Advancing DPM injections ....
number tracked = 466212, escaped = 177, aborted = 0, trapped = 1474, evaporated = 0, incomplete = 0, incomplete_parallel = 0

  iter     time/iter
Volume Averaged Variable at (0.000000 0.100000 1.300000) is 0.000000e+00
  step  flow-time  volflow_or  volflow_in volflow_cor     temp_p1    temp_max pressure_or pressure_dif pressure_cor mass_balance heat_balance      dpm_p2      dpm_or     dpm_cor
  1211  2.4220e+02 -2.1069e+00  2.1019e+00 -1.0800e-01  2.9410e+02  3.6344e+02  4.8395e+00  5.0040e+00 -1.6447e-01  3.8150e-08  1.1514e-01  0.0000e+00  0.0000e+00  8.0300e-11
Flow time = 242.2s, time step = 1211
2489 more time steps

Updating solution at time level N... done.
Injecting 1734 particle parcels with mass 2e-11 at t = 242.2

Advancing DPM injections ....
number tracked = 466295, escaped = 198, aborted = 0, trapped = 1569, evaporated = 0, incomplete = 0, incomplete_parallel = 0

  iter     time/iter
Volume Averaged Variable at (0.000000 0.100000 1.300000) is 0.000000e+00
  step  flow-time  volflow_or  volflow_in volflow_cor     temp_p1    temp_max pressure_or pressure_dif pressure_cor mass_balance heat_balance      dpm_p2      dpm_or     dpm_cor
  1212  2.4240e+02 -2.1069e+00  2.1019e+00 -1.0800e-01  2.9410e+02  3.6344e+02  4.8395e+00  5.0040e+00 -1.6447e-01  3.8150e-08  1.1514e-01  0.0000e+00  0.0000e+00  8.0298e-11
Flow time = 242.4s, time step = 1212
2488 more time steps

Updating solution at time level N... done.
Injecting 1734 particle parcels with mass 2e-11 at t = 242.4

Advancing DPM injections ....
number tracked = 466262, escaped = 192, aborted = 0, trapped = 1470, evaporated = 0, incomplete = 0, incomplete_parallel = 0

  iter     time/iter
Volume Averaged Variable at (0.000000 0.100000 1.300000) is 0.000000e+00
  step  flow-time  volflow_or  volflow_in volflow_cor     temp_p1    temp_max pressure_or pressure_dif pressure_cor mass_balance heat_balance      dpm_p2      dpm_or     dpm_cor
  1213  2.4260e+02 -2.1069e+00  2.1019e+00 -1.0800e-01  2.9410e+02  3.6344e+02  4.8395e+00  5.0040e+00 -1.6447e-01  3.8150e-08  1.1514e-01  0.0000e+00  0.0000e+00  8.0307e-11
Flow time = 242.6s, time step = 1213
2487 more time steps

Updating solution at time level N... done.
Injecting 1734 particle parcels with mass 2e-11 at t = 242.6

Advancing DPM injections ....
number tracked = 466334, escaped = 191, aborted = 0, trapped = 1558, evaporated = 0, incomplete = 0, incomplete_parallel = 0

  iter     time/iter
Volume Averaged Variable at (0.000000 0.100000 1.300000) is 0.000000e+00
  step  flow-time  volflow_or  volflow_in volflow_cor     temp_p1    temp_max pressure_or pressure_dif pressure_cor mass_balance heat_balance      dpm_p2      dpm_or     dpm_cor
  1214  2.4280e+02 -2.1069e+00  2.1019e+00 -1.0800e-01  2.9410e+02  3.6344e+02  4.8395e+00  5.0040e+00 -1.6447e-01  3.8150e-08  1.1514e-01  0.0000e+00  0.0000e+00  8.0308e-11
Flow time = 242.8s, time step = 1214
2486 more time steps

Updating solution at time level N... done.
Injecting 1734 particle parcels with mass 2e-11 at t = 242.8

Advancing DPM injections ....
number tracked = 466319, escaped = 213, aborted = 0, trapped = 1519, evaporated = 0, incomplete = 0, incomplete_parallel = 0

  iter     time/iter
Volume Averaged Variable at (0.000000 0.100000 1.300000) is 0.000000e+00
  step  flow-time  volflow_or  volflow_in volflow_cor     temp_p1    temp_max pressure_or pressure_dif pressure_cor mass_balance heat_balance      dpm_p2      dpm_or     dpm_cor
  1215  2.4300e+02 -2.1069e+00  2.1019e+00 -1.0800e-01  2.9410e+02  3.6344e+02  4.8395e+00  5.0040e+00 -1.6447e-01  3.8150e-08  1.1514e-01  0.0000e+00  0.0000e+00  8.0310e-11
Flow time = 243s, time step = 1215
2485 more time steps

Updating solution at time level N... done.
Injecting 1734 particle parcels with mass 2e-11 at t = 243

Advancing DPM injections ....
number tracked = 466321, escaped = 203, aborted = 0, trapped = 1511, evaporated = 0, incomplete = 0, incomplete_parallel = 0

  iter     time/iter
Volume Averaged Variable at (0.000000 0.100000 1.300000) is 0.000000e+00
  step  flow-time  volflow_or  volflow_in volflow_cor     temp_p1    temp_max pressure_or pressure_dif pressure_cor mass_balance heat_balance      dpm_p2      dpm_or     dpm_cor
  1216  2.4320e+02 -2.1069e+00  2.1019e+00 -1.0800e-01  2.9410e+02  3.6344e+02  4.8395e+00  5.0040e+00 -1.6447e-01  3.8150e-08  1.1514e-01  0.0000e+00  0.0000e+00  8.0316e-11
Flow time = 243.2s, time step = 1216
2484 more time steps

Updating solution at time level N... done.
Injecting 1734 particle parcels with mass 2e-11 at t = 243.2

Advancing DPM injections ....
number tracked = 466341, escaped = 185, aborted = 0, trapped = 1520, evaporated = 0, incomplete = 0, incomplete_parallel = 0

  iter     time/iter
Volume Averaged Variable at (0.000000 0.100000 1.300000) is 0.000000e+00
  step  flow-time  volflow_or  volflow_in volflow_cor     temp_p1    temp_max pressure_or pressure_dif pressure_cor mass_balance heat_balance      dpm_p2      dpm_or     dpm_cor
  1217  2.4340e+02 -2.1069e+00  2.1019e+00 -1.0800e-01  2.9410e+02  3.6344e+02  4.8395e+00  5.0040e+00 -1.6447e-01  3.8150e-08  1.1514e-01  0.0000e+00  0.0000e+00  8.0320e-11
Flow time = 243.4s, time step = 1217
2483 more time steps

Updating solution at time level N... done.
Injecting 1734 particle parcels with mass 2e-11 at t = 243.4

Advancing DPM injections ....
number tracked = 466370, escaped = 177, aborted = 0, trapped = 1540, evaporated = 0, incomplete = 0, incomplete_parallel = 0

  iter     time/iter
Volume Averaged Variable at (0.000000 0.100000 1.300000) is 0.000000e+00
  step  flow-time  volflow_or  volflow_in volflow_cor     temp_p1    temp_max pressure_or pressure_dif pressure_cor mass_balance heat_balance      dpm_p2      dpm_or     dpm_cor
  1218  2.4360e+02 -2.1069e+00  2.1019e+00 -1.0800e-01  2.9410e+02  3.6344e+02  4.8395e+00  5.0040e+00 -1.6447e-01  3.8150e-08  1.1514e-01  0.0000e+00  0.0000e+00  8.0319e-11
Flow time = 243.6s, time step = 1218
2482 more time steps

Updating solution at time level N... done.
Injecting 1734 particle parcels with mass 2e-11 at t = 243.6

Advancing DPM injections ....
number tracked = 466387, escaped = 195, aborted = 0, trapped = 1562, evaporated = 0, incomplete = 0, incomplete_parallel = 0

  iter     time/iter
Volume Averaged Variable at (0.000000 0.100000 1.300000) is 0.000000e+00
  step  flow-time  volflow_or  volflow_in volflow_cor     temp_p1    temp_max pressure_or pressure_dif pressure_cor mass_balance heat_balance      dpm_p2      dpm_or     dpm_cor
  1219  2.4380e+02 -2.1069e+00  2.1019e+00 -1.0800e-01  2.9410e+02  3.6344e+02  4.8395e+00  5.0040e+00 -1.6447e-01  3.8150e-08  1.1514e-01  0.0000e+00  0.0000e+00  8.0319e-11
Flow time = 243.8s, time step = 1219
2481 more time steps

Updating solution at time level N... done.
Injecting 1734 particle parcels with mass 2e-11 at t = 243.8

Advancing DPM injections ....
number tracked = 466364, escaped = 190, aborted = 0, trapped = 1515, evaporated = 0, incomplete = 0, incomplete_parallel = 0

  iter     time/iter
Volume Averaged Variable at (0.000000 0.100000 1.300000) is 0.000000e+00
/file/read-macros controlruntime.scm
Loading "././controlruntime.scm"
Done.

> 
  step  flow-time  volflow_or  volflow_in volflow_cor     temp_p1    temp_max pressure_or pressure_dif pressure_cor mass_balance heat_balance      dpm_p2      dpm_or     dpm_cor
  1220  2.4400e+02 -2.1069e+00  2.1019e+00 -1.0800e-01  2.9410e+02  3.6344e+02  4.8395e+00  5.0040e+00 -1.6447e-01  3.8150e-08  1.1514e-01  0.0000e+00  0.0000e+00  8.0328e-11
Flow time = 244s, time step = 1220
2480 more time steps

Updating solution at time level N... done.
Injecting 1734 particle parcels with mass 2e-11 at t = 244

Advancing DPM injections ....
number tracked = 466393, escaped = 146, aborted = 0, trapped = 1515, evaporated = 0, incomplete = 0, incomplete_parallel = 0

  iter     time/iter
Volume Averaged Variable at (0.000000 0.100000 1.300000) is 0.000000e+00
  step  flow-time  volflow_or  volflow_in volflow_cor     temp_p1    temp_max pressure_or pressure_dif pressure_cor mass_balance heat_balance      dpm_p2      dpm_or     dpm_cor
  1221  2.4420e+02 -2.1069e+00  2.1019e+00 -1.0800e-01  2.9410e+02  3.6344e+02  4.8395e+00  5.0040e+00 -1.6447e-01  3.8150e-08  1.1514e-01  0.0000e+00  0.0000e+00  8.0332e-11
Flow time = 244.2s, time step = 1221
2479 more time steps

Updating solution at time level N... done.
Injecting 1734 particle parcels with mass 2e-11 at t = 244.2

Advancing DPM injections ....
number tracked = 466466, escaped = 188, aborted = 0, trapped = 1491, evaporated = 0, incomplete = 0, incomplete_parallel = 0

  iter     time/iter
Volume Averaged Variable at (0.000000 0.100000 1.300000) is 0.000000e+00
  step  flow-time  volflow_or  volflow_in volflow_cor     temp_p1    temp_max pressure_or pressure_dif pressure_cor mass_balance heat_balance      dpm_p2      dpm_or     dpm_cor
  1222  2.4440e+02 -2.1069e+00  2.1019e+00 -1.0800e-01  2.9410e+02  3.6344e+02  4.8395e+00  5.0040e+00 -1.6447e-01  3.8150e-08  1.1514e-01  0.0000e+00  0.0000e+00  8.0346e-11
Flow time = 244.4s, time step = 1222
2478 more time steps

Updating solution at time level N... done.
Injecting 1734 particle parcels with mass 2e-11 at t = 244.4

Advancing DPM injections ....
number tracked = 466521, escaped = 191, aborted = 0, trapped = 1540, evaporated = 0, incomplete = 0, incomplete_parallel = 0

  iter     time/iter
Volume Averaged Variable at (0.000000 0.100000 1.300000) is 0.000000e+00
  step  flow-time  volflow_or  volflow_in volflow_cor     temp_p1    temp_max pressure_or pressure_dif pressure_cor mass_balance heat_balance      dpm_p2      dpm_or     dpm_cor
  1223  2.4460e+02 -2.1069e+00  2.1019e+00 -1.0800e-01  2.9410e+02  3.6344e+02  4.8395e+00  5.0040e+00 -1.6447e-01  3.8150e-08  1.1514e-01  0.0000e+00  0.0000e+00  8.0345e-11
Flow time = 244.6s, time step = 1223
2477 more time steps

Updating solution at time level N... done.
Injecting 1734 particle parcels with mass 2e-11 at t = 244.6

Advancing DPM injections ....
number tracked = 466524, escaped = 197, aborted = 0, trapped = 1508, evaporated = 0, incomplete = 0, incomplete_parallel = 0

  iter     time/iter
Volume Averaged Variable at (0.000000 0.100000 1.300000) is 0.000000e+00
  step  flow-time  volflow_or  volflow_in volflow_cor     temp_p1    temp_max pressure_or pressure_dif pressure_cor mass_balance heat_balance      dpm_p2      dpm_or     dpm_cor
  1224  2.4480e+02 -2.1069e+00  2.1019e+00 -1.0800e-01  2.9410e+02  3.6344e+02  4.8395e+00  5.0040e+00 -1.6447e-01  3.8150e-08  1.1514e-01  0.0000e+00  0.0000e+00  8.0346e-11
Flow time = 244.8s, time step = 1224
2476 more time steps

Updating solution at time level N... done.
Injecting 1734 particle parcels with mass 2e-11 at t = 244.8

Advancing DPM injections ....
number tracked = 466553, escaped = 210, aborted = 0, trapped = 1569, evaporated = 0, incomplete = 0, incomplete_parallel = 0

  iter     time/iter
Volume Averaged Variable at (0.000000 0.100000 1.300000) is 0.000000e+00
  step  flow-time  volflow_or  volflow_in volflow_cor     temp_p1    temp_max pressure_or pressure_dif pressure_cor mass_balance heat_balance      dpm_p2      dpm_or     dpm_cor
  1225  2.4500e+02 -2.1069e+00  2.1019e+00 -1.0800e-01  2.9410e+02  3.6344e+02  4.8395e+00  5.0040e+00 -1.6447e-01  3.8150e-08  1.1514e-01  0.0000e+00  0.0000e+00  8.0340e-11
Flow time = 245s, time step = 1225
2475 more time steps

Updating solution at time level N... done.
Injecting 1734 particle parcels with mass 2e-11 at t = 245

Advancing DPM injections ....
number tracked = 466508, escaped = 187, aborted = 0, trapped = 1482, evaporated = 0, incomplete = 0, incomplete_parallel = 0

  iter     time/iter
Volume Averaged Variable at (0.000000 0.100000 1.300000) is 0.000000e+00
  step  flow-time  volflow_or  volflow_in volflow_cor     temp_p1    temp_max pressure_or pressure_dif pressure_cor mass_balance heat_balance      dpm_p2      dpm_or     dpm_cor
  1226  2.4520e+02 -2.1069e+00  2.1019e+00 -1.0800e-01  2.9410e+02  3.6344e+02  4.8395e+00  5.0040e+00 -1.6447e-01  3.8150e-08  1.1514e-01  0.0000e+00  0.0000e+00  8.0351e-11
Flow time = 245.2s, time step = 1226
2474 more time steps

Updating solution at time level N... done.
Injecting 1734 particle parcels with mass 2e-11 at t = 245.2

Advancing DPM injections ....
number tracked = 466573, escaped = 165, aborted = 0, trapped = 1433, evaporated = 0, incomplete = 0, incomplete_parallel = 0

  iter     time/iter
Volume Averaged Variable at (0.000000 0.100000 1.300000) is 0.000000e+00
  step  flow-time  volflow_or  volflow_in volflow_cor     temp_p1    temp_max pressure_or pressure_dif pressure_cor mass_balance heat_balance      dpm_p2      dpm_or     dpm_cor
  1227  2.4540e+02 -2.1069e+00  2.1019e+00 -1.0800e-01  2.9410e+02  3.6344e+02  4.8395e+00  5.0040e+00 -1.6447e-01  3.8150e-08  1.1514e-01  0.0000e+00  0.0000e+00  8.0371e-11
Flow time = 245.4s, time step = 1227
2473 more time steps

Updating solution at time level N... done.
Injecting 1734 particle parcels with mass 2e-11 at t = 245.4

Advancing DPM injections ....
number tracked = 466709, escaped = 189, aborted = 0, trapped = 1487, evaporated = 0, incomplete = 0, incomplete_parallel = 0

  iter     time/iter
Volume Averaged Variable at (0.000000 0.100000 1.300000) is 0.000000e+00
  step  flow-time  volflow_or  volflow_in volflow_cor     temp_p1    temp_max pressure_or pressure_dif pressure_cor mass_balance heat_balance      dpm_p2      dpm_or     dpm_cor
  1228  2.4560e+02 -2.1069e+00  2.1019e+00 -1.0800e-01  2.9410e+02  3.6344e+02  4.8395e+00  5.0040e+00 -1.6447e-01  3.8150e-08  1.1514e-01  0.0000e+00  0.0000e+00  8.0386e-11
Flow time = 245.6s, time step = 1228
2472 more time steps

Updating solution at time level N... done.
Injecting 1734 particle parcels with mass 2e-11 at t = 245.6

Advancing DPM injections ....
number tracked = 466767, escaped = 188, aborted = 0, trapped = 1505, evaporated = 0, incomplete = 0, incomplete_parallel = 0

  iter     time/iter
Volume Averaged Variable at (0.000000 0.100000 1.300000) is 0.000000e+00
  step  flow-time  volflow_or  volflow_in volflow_cor     temp_p1    temp_max pressure_or pressure_dif pressure_cor mass_balance heat_balance      dpm_p2      dpm_or     dpm_cor
  1229  2.4580e+02 -2.1069e+00  2.1019e+00 -1.0800e-01  2.9410e+02  3.6344e+02  4.8395e+00  5.0040e+00 -1.6447e-01  3.8150e-08  1.1514e-01  0.0000e+00  0.0000e+00  8.0388e-11
Flow time = 245.8s, time step = 1229
2471 more time steps

Updating solution at time level N... done.
Injecting 1734 particle parcels with mass 2e-11 at t = 245.8

Advancing DPM injections ....
number tracked = 466808, escaped = 194, aborted = 0, trapped = 1509, evaporated = 0, incomplete = 0, incomplete_parallel = 0

  iter     time/iter
Volume Averaged Variable at (0.000000 0.100000 1.300000) is 0.000000e+00
/file/read-macros controlruntime.scm
Loading "././controlruntime.scm"
Done.

> 
  step  flow-time  volflow_or  volflow_in volflow_cor     temp_p1    temp_max pressure_or pressure_dif pressure_cor mass_balance heat_balance      dpm_p2      dpm_or     dpm_cor
  1230  2.4600e+02 -2.1069e+00  2.1019e+00 -1.0800e-01  2.9410e+02  3.6344e+02  4.8395e+00  5.0040e+00 -1.6447e-01  3.8150e-08  1.1514e-01  0.0000e+00  0.0000e+00  8.0398e-11
Flow time = 246s, time step = 1230
2470 more time steps

Updating solution at time level N... done.
Injecting 1734 particle parcels with mass 2e-11 at t = 246

Advancing DPM injections ....
number tracked = 466839, escaped = 179, aborted = 0, trapped = 1496, evaporated = 0, incomplete = 0, incomplete_parallel = 0

  iter     time/iter
Volume Averaged Variable at (0.000000 0.100000 1.300000) is 0.000000e+00
  step  flow-time  volflow_or  volflow_in volflow_cor     temp_p1    temp_max pressure_or pressure_dif pressure_cor mass_balance heat_balance      dpm_p2      dpm_or     dpm_cor
  1231  2.4620e+02 -2.1069e+00  2.1019e+00 -1.0800e-01  2.9410e+02  3.6344e+02  4.8395e+00  5.0040e+00 -1.6447e-01  3.8150e-08  1.1514e-01  0.0000e+00  0.0000e+00  8.0408e-11
Flow time = 246.2s, time step = 1231
2469 more time steps

Updating solution at time level N... done.
Injecting 1734 particle parcels with mass 2e-11 at t = 246.2

Advancing DPM injections ....
number tracked = 466898, escaped = 181, aborted = 0, trapped = 1496, evaporated = 0, incomplete = 0, incomplete_parallel = 0

  iter     time/iter
Volume Averaged Variable at (0.000000 0.100000 1.300000) is 0.000000e+00
  step  flow-time  volflow_or  volflow_in volflow_cor     temp_p1    temp_max pressure_or pressure_dif pressure_cor mass_balance heat_balance      dpm_p2      dpm_or     dpm_cor
  1232  2.4640e+02 -2.1069e+00  2.1019e+00 -1.0800e-01  2.9410e+02  3.6344e+02  4.8395e+00  5.0040e+00 -1.6447e-01  3.8150e-08  1.1514e-01  0.0000e+00  0.0000e+00  8.0412e-11
Flow time = 246.4s, time step = 1232
2468 more time steps

Updating solution at time level N... done.
Injecting 1734 particle parcels with mass 2e-11 at t = 246.4

Advancing DPM injections ....
number tracked = 466955, escaped = 166, aborted = 0, trapped = 1539, evaporated = 0, incomplete = 0, incomplete_parallel = 0

  iter     time/iter
Volume Averaged Variable at (0.000000 0.100000 1.300000) is 0.000000e+00
  step  flow-time  volflow_or  volflow_in volflow_cor     temp_p1    temp_max pressure_or pressure_dif pressure_cor mass_balance heat_balance      dpm_p2      dpm_or     dpm_cor
  1233  2.4660e+02 -2.1069e+00  2.1019e+00 -1.0800e-01  2.9410e+02  3.6344e+02  4.8395e+00  5.0040e+00 -1.6447e-01  3.8150e-08  1.1514e-01  0.0000e+00  0.0000e+00  8.0418e-11
Flow time = 246.6s, time step = 1233
2467 more time steps

Updating solution at time level N... done.
Injecting 1734 particle parcels with mass 2e-11 at t = 246.6

Advancing DPM injections ....
number tracked = 466984, escaped = 191, aborted = 0, trapped = 1566, evaporated = 0, incomplete = 0, incomplete_parallel = 0

  iter     time/iter
Volume Averaged Variable at (0.000000 0.100000 1.300000) is 0.000000e+00
  step  flow-time  volflow_or  volflow_in volflow_cor     temp_p1    temp_max pressure_or pressure_dif pressure_cor mass_balance heat_balance      dpm_p2      dpm_or     dpm_cor
  1234  2.4680e+02 -2.1069e+00  2.1019e+00 -1.0800e-01  2.9410e+02  3.6344e+02  4.8395e+00  5.0040e+00 -1.6447e-01  3.8150e-08  1.1514e-01  0.0000e+00  0.0000e+00  8.0415e-11
Flow time = 246.8s, time step = 1234
2466 more time steps

Updating solution at time level N... done.
Injecting 1734 particle parcels with mass 2e-11 at t = 246.8

Advancing DPM injections ....
number tracked = 466961, escaped = 189, aborted = 0, trapped = 1518, evaporated = 0, incomplete = 0, incomplete_parallel = 0

  iter     time/iter
Volume Averaged Variable at (0.000000 0.100000 1.300000) is 0.000000e+00
  step  flow-time  volflow_or  volflow_in volflow_cor     temp_p1    temp_max pressure_or pressure_dif pressure_cor mass_balance heat_balance      dpm_p2      dpm_or     dpm_cor
  1235  2.4700e+02 -2.1069e+00  2.1019e+00 -1.0800e-01  2.9410e+02  3.6344e+02  4.8395e+00  5.0040e+00 -1.6447e-01  3.8150e-08  1.1514e-01  0.0000e+00  0.0000e+00  8.0420e-11
Flow time = 247s, time step = 1235
2465 more time steps

Updating solution at time level N... done.
Injecting 1734 particle parcels with mass 2e-11 at t = 247

Advancing DPM injections ....
number tracked = 466988, escaped = 200, aborted = 0, trapped = 1502, evaporated = 0, incomplete = 0, incomplete_parallel = 0

  iter     time/iter
Volume Averaged Variable at (0.000000 0.100000 1.300000) is 0.000000e+00
  step  flow-time  volflow_or  volflow_in volflow_cor     temp_p1    temp_max pressure_or pressure_dif pressure_cor mass_balance heat_balance      dpm_p2      dpm_or     dpm_cor
  1236  2.4720e+02 -2.1069e+00  2.1019e+00 -1.0800e-01  2.9410e+02  3.6344e+02  4.8395e+00  5.0040e+00 -1.6447e-01  3.8150e-08  1.1514e-01  0.0000e+00  0.0000e+00  8.0423e-11
Flow time = 247.2s, time step = 1236
2464 more time steps

Updating solution at time level N... done.
Injecting 1734 particle parcels with mass 2e-11 at t = 247.2

Advancing DPM injections ....
number tracked = 467020, escaped = 168, aborted = 0, trapped = 1564, evaporated = 0, incomplete = 0, incomplete_parallel = 0

  iter     time/iter
Volume Averaged Variable at (0.000000 0.100000 1.300000) is 0.000000e+00
  step  flow-time  volflow_or  volflow_in volflow_cor     temp_p1    temp_max pressure_or pressure_dif pressure_cor mass_balance heat_balance      dpm_p2      dpm_or     dpm_cor
  1237  2.4740e+02 -2.1069e+00  2.1019e+00 -1.0800e-01  2.9410e+02  3.6344e+02  4.8395e+00  5.0040e+00 -1.6447e-01  3.8150e-08  1.1514e-01  0.0000e+00  0.0000e+00  8.0426e-11
Flow time = 247.4s, time step = 1237
2463 more time steps

Updating solution at time level N... done.
Injecting 1734 particle parcels with mass 2e-11 at t = 247.4

Advancing DPM injections ....
number tracked = 467022, escaped = 184, aborted = 0, trapped = 1525, evaporated = 0, incomplete = 0, incomplete_parallel = 0

  iter     time/iter
Volume Averaged Variable at (0.000000 0.100000 1.300000) is 0.000000e+00
  step  flow-time  volflow_or  volflow_in volflow_cor     temp_p1    temp_max pressure_or pressure_dif pressure_cor mass_balance heat_balance      dpm_p2      dpm_or     dpm_cor
  1238  2.4760e+02 -2.1069e+00  2.1019e+00 -1.0800e-01  2.9410e+02  3.6344e+02  4.8395e+00  5.0040e+00 -1.6447e-01  3.8150e-08  1.1514e-01  0.0000e+00  0.0000e+00  8.0424e-11
Flow time = 247.6s, time step = 1238
2462 more time steps

Updating solution at time level N... done.
Injecting 1734 particle parcels with mass 2e-11 at t = 247.6

Advancing DPM injections ....
number tracked = 467047, escaped = 180, aborted = 0, trapped = 1461, evaporated = 0, incomplete = 0, incomplete_parallel = 0

  iter     time/iter
Volume Averaged Variable at (0.000000 0.100000 1.300000) is 0.000000e+00
  step  flow-time  volflow_or  volflow_in volflow_cor     temp_p1    temp_max pressure_or pressure_dif pressure_cor mass_balance heat_balance      dpm_p2      dpm_or     dpm_cor
  1239  2.4780e+02 -2.1069e+00  2.1019e+00 -1.0800e-01  2.9410e+02  3.6344e+02  4.8395e+00  5.0040e+00 -1.6447e-01  3.8150e-08  1.1514e-01  0.0000e+00  0.0000e+00  8.0435e-11
Flow time = 247.8s, time step = 1239
2461 more time steps

Updating solution at time level N... done.
Injecting 1734 particle parcels with mass 2e-11 at t = 247.8

Advancing DPM injections ....
number tracked = 467140, escaped = 173, aborted = 0, trapped = 1493, evaporated = 0, incomplete = 0, incomplete_parallel = 0

  iter     time/iter
Volume Averaged Variable at (0.000000 0.100000 1.300000) is 0.000000e+00
/file/read-macros controlruntime.scm
Loading "././controlruntime.scm"
Done.

> 
  step  flow-time  volflow_or  volflow_in volflow_cor     temp_p1    temp_max pressure_or pressure_dif pressure_cor mass_balance heat_balance      dpm_p2      dpm_or     dpm_cor
  1240  2.4800e+02 -2.1069e+00  2.1019e+00 -1.0800e-01  2.9410e+02  3.6344e+02  4.8395e+00  5.0040e+00 -1.6447e-01  3.8150e-08  1.1514e-01  0.0000e+00  0.0000e+00  8.0444e-11
Flow time = 248s, time step = 1240
2460 more time steps

Updating solution at time level N... done.
Injecting 1734 particle parcels with mass 2e-11 at t = 248

Advancing DPM injections ....
number tracked = 467208, escaped = 165, aborted = 0, trapped = 1464, evaporated = 0, incomplete = 0, incomplete_parallel = 0

  iter     time/iter
Volume Averaged Variable at (0.000000 0.100000 1.300000) is 0.000000e+00
  step  flow-time  volflow_or  volflow_in volflow_cor     temp_p1    temp_max pressure_or pressure_dif pressure_cor mass_balance heat_balance      dpm_p2      dpm_or     dpm_cor
  1241  2.4820e+02 -2.1069e+00  2.1019e+00 -1.0800e-01  2.9410e+02  3.6344e+02  4.8395e+00  5.0040e+00 -1.6447e-01  3.8150e-08  1.1514e-01  0.0000e+00  0.0000e+00  8.0463e-11
Flow time = 248.2s, time step = 1241
2459 more time steps

Updating solution at time level N... done.
Injecting 1734 particle parcels with mass 2e-11 at t = 248.2

Advancing DPM injections ....
number tracked = 467313, escaped = 190, aborted = 0, trapped = 1537, evaporated = 0, incomplete = 0, incomplete_parallel = 0

  iter     time/iter
Volume Averaged Variable at (0.000000 0.100000 1.300000) is 0.000000e+00
  step  flow-time  volflow_or  volflow_in volflow_cor     temp_p1    temp_max pressure_or pressure_dif pressure_cor mass_balance heat_balance      dpm_p2      dpm_or     dpm_cor
  1242  2.4840e+02 -2.1069e+00  2.1019e+00 -1.0800e-01  2.9410e+02  3.6344e+02  4.8395e+00  5.0040e+00 -1.6447e-01  3.8150e-08  1.1514e-01  0.0000e+00  0.0000e+00  8.0470e-11
Flow time = 248.4s, time step = 1242
2458 more time steps

Updating solution at time level N... done.
Injecting 1734 particle parcels with mass 2e-11 at t = 248.4

Advancing DPM injections ....
number tracked = 467320, escaped = 197, aborted = 0, trapped = 1487, evaporated = 0, incomplete = 0, incomplete_parallel = 0

  iter     time/iter
Volume Averaged Variable at (0.000000 0.100000 1.300000) is 0.000000e+00
  step  flow-time  volflow_or  volflow_in volflow_cor     temp_p1    temp_max pressure_or pressure_dif pressure_cor mass_balance heat_balance      dpm_p2      dpm_or     dpm_cor
  1243  2.4860e+02 -2.1069e+00  2.1019e+00 -1.0800e-01  2.9410e+02  3.6344e+02  4.8395e+00  5.0040e+00 -1.6447e-01  3.8150e-08  1.1514e-01  0.0000e+00  0.0000e+00  8.0479e-11
Flow time = 248.6s, time step = 1243
2457 more time steps

Updating solution at time level N... done.
Injecting 1734 particle parcels with mass 2e-11 at t = 248.6

Advancing DPM injections ....
number tracked = 467370, escaped = 196, aborted = 0, trapped = 1453, evaporated = 0, incomplete = 0, incomplete_parallel = 0

  iter     time/iter
Volume Averaged Variable at (0.000000 0.100000 1.300000) is 0.000000e+00
  step  flow-time  volflow_or  volflow_in volflow_cor     temp_p1    temp_max pressure_or pressure_dif pressure_cor mass_balance heat_balance      dpm_p2      dpm_or     dpm_cor
  1244  2.4880e+02 -2.1069e+00  2.1019e+00 -1.0800e-01  2.9410e+02  3.6344e+02  4.8395e+00  5.0040e+00 -1.6447e-01  3.8150e-08  1.1514e-01  0.0000e+00  0.0000e+00  8.0489e-11
Flow time = 248.8s, time step = 1244
2456 more time steps

Updating solution at time level N... done.
Injecting 1734 particle parcels with mass 2e-11 at t = 248.8

Advancing DPM injections ....
number tracked = 467455, escaped = 179, aborted = 0, trapped = 1518, evaporated = 0, incomplete = 0, incomplete_parallel = 0

  iter     time/iter
Volume Averaged Variable at (0.000000 0.100000 1.300000) is 0.000000e+00
  step  flow-time  volflow_or  volflow_in volflow_cor     temp_p1    temp_max pressure_or pressure_dif pressure_cor mass_balance heat_balance      dpm_p2      dpm_or     dpm_cor
[...]
  3675  7.3500e+02 -2.1069e+00  2.1019e+00 -1.0800e-01  2.9410e+02  3.6344e+02  4.8395e+00  5.0040e+00 -1.6447e-01  3.8150e-08  1.1514e-01  0.0000e+00  0.0000e+00  8.2644e-11
Flow time = 735s, time step = 3675
25 more time steps

Updating solution at time level N... done.
Injecting 1734 particle parcels with mass 2e-11 at t = 735

Advancing DPM injections ....
number tracked = 480008, escaped = 213, aborted = 0, trapped = 1585, evaporated = 0, incomplete = 0, incomplete_parallel = 0

  iter     time/iter
Volume Averaged Variable at (0.000000 0.100000 1.300000) is 0.000000e+00
  step  flow-time  volflow_or  volflow_in volflow_cor     temp_p1    temp_max pressure_or pressure_dif pressure_cor mass_balance heat_balance      dpm_p2      dpm_or     dpm_cor
  3676  7.3520e+02 -2.1069e+00  2.1019e+00 -1.0800e-01  2.9410e+02  3.6344e+02  4.8395e+00  5.0040e+00 -1.6447e-01  3.8150e-08  1.1514e-01  0.0000e+00  0.0000e+00  8.2636e-11
Flow time = 735.2s, time step = 3676
24 more time steps

Updating solution at time level N... done.
Injecting 1734 particle parcels with mass 2e-11 at t = 735.2

Advancing DPM injections ....
number tracked = 479944, escaped = 175, aborted = 0, trapped = 1509, evaporated = 0, incomplete = 0, incomplete_parallel = 0

  iter     time/iter
Volume Averaged Variable at (0.000000 0.100000 1.300000) is 0.000000e+00
  step  flow-time  volflow_or  volflow_in volflow_cor     temp_p1    temp_max pressure_or pressure_dif pressure_cor mass_balance heat_balance      dpm_p2      dpm_or     dpm_cor
  3677  7.3540e+02 -2.1069e+00  2.1019e+00 -1.0800e-01  2.9410e+02  3.6344e+02  4.8395e+00  5.0040e+00 -1.6447e-01  3.8150e-08  1.1514e-01  0.0000e+00  0.0000e+00  8.2643e-11
Flow time = 735.4000000000001s, time step = 3677
23 more time steps

Updating solution at time level N... done.
Injecting 1734 particle parcels with mass 2e-11 at t = 735.4

Advancing DPM injections ....
number tracked = 479994, escaped = 196, aborted = 0, trapped = 1580, evaporated = 0, incomplete = 0, incomplete_parallel = 0

  iter     time/iter
Volume Averaged Variable at (0.000000 0.100000 1.300000) is 0.000000e+00
  step  flow-time  volflow_or  volflow_in volflow_cor     temp_p1    temp_max pressure_or pressure_dif pressure_cor mass_balance heat_balance      dpm_p2      dpm_or     dpm_cor
  3678  7.3560e+02 -2.1069e+00  2.1019e+00 -1.0800e-01  2.9410e+02  3.6344e+02  4.8395e+00  5.0040e+00 -1.6447e-01  3.8150e-08  1.1514e-01  0.0000e+00  0.0000e+00  8.2642e-11
Flow time = 735.6s, time step = 3678
22 more time steps

Updating solution at time level N... done.
Injecting 1734 particle parcels with mass 2e-11 at t = 735.6

Advancing DPM injections ....
number tracked = 479952, escaped = 186, aborted = 0, trapped = 1503, evaporated = 0, incomplete = 0, incomplete_parallel = 0

  iter     time/iter
Volume Averaged Variable at (0.000000 0.100000 1.300000) is 0.000000e+00
  step  flow-time  volflow_or  volflow_in volflow_cor     temp_p1    temp_max pressure_or pressure_dif pressure_cor mass_balance heat_balance      dpm_p2      dpm_or     dpm_cor
  3679  7.3580e+02 -2.1069e+00  2.1019e+00 -1.0800e-01  2.9410e+02  3.6344e+02  4.8395e+00  5.0040e+00 -1.6447e-01  3.8150e-08  1.1514e-01  0.0000e+00  0.0000e+00  8.2648e-11
Flow time = 735.8s, time step = 3679
21 more time steps

Updating solution at time level N... done.
Injecting 1734 particle parcels with mass 2e-11 at t = 735.8

Advancing DPM injections ....
number tracked = 479997, escaped = 204, aborted = 0, trapped = 1548, evaporated = 0, incomplete = 0, incomplete_parallel = 0

  iter     time/iter
Volume Averaged Variable at (0.000000 0.100000 1.300000) is 0.000000e+00
/file/read-macros controlruntime.scm
Loading "././controlruntime.scm"
Done.

> 
  step  flow-time  volflow_or  volflow_in volflow_cor     temp_p1    temp_max pressure_or pressure_dif pressure_cor mass_balance heat_balance      dpm_p2      dpm_or     dpm_cor
  3680  7.3600e+02 -2.1069e+00  2.1019e+00 -1.0800e-01  2.9410e+02  3.6344e+02  4.8395e+00  5.0040e+00 -1.6447e-01  3.8150e-08  1.1514e-01  0.0000e+00  0.0000e+00  8.2651e-11
Flow time = 736s, time step = 3680
20 more time steps

Updating solution at time level N... done.
Injecting 1734 particle parcels with mass 2e-11 at t = 736

Advancing DPM injections ....
number tracked = 479979, escaped = 199, aborted = 0, trapped = 1540, evaporated = 0, incomplete = 0, incomplete_parallel = 0

  iter     time/iter
Volume Averaged Variable at (0.000000 0.100000 1.300000) is 0.000000e+00
  step  flow-time  volflow_or  volflow_in volflow_cor     temp_p1    temp_max pressure_or pressure_dif pressure_cor mass_balance heat_balance      dpm_p2      dpm_or     dpm_cor
  3681  7.3620e+02 -2.1069e+00  2.1019e+00 -1.0800e-01  2.9410e+02  3.6344e+02  4.8395e+00  5.0040e+00 -1.6447e-01  3.8150e-08  1.1514e-01  0.0000e+00  0.0000e+00  8.2655e-11
Flow time = 736.2s, time step = 3681
19 more time steps

Updating solution at time level N... done.
Injecting 1734 particle parcels with mass 2e-11 at t = 736.2

Advancing DPM injections ....
number tracked = 479974, escaped = 189, aborted = 0, trapped = 1547, evaporated = 0, incomplete = 0, incomplete_parallel = 0

  iter     time/iter
Volume Averaged Variable at (0.000000 0.100000 1.300000) is 0.000000e+00
  step  flow-time  volflow_or  volflow_in volflow_cor     temp_p1    temp_max pressure_or pressure_dif pressure_cor mass_balance heat_balance      dpm_p2      dpm_or     dpm_cor
  3682  7.3640e+02 -2.1069e+00  2.1019e+00 -1.0800e-01  2.9410e+02  3.6344e+02  4.8395e+00  5.0040e+00 -1.6447e-01  3.8150e-08  1.1514e-01  0.0000e+00  0.0000e+00  8.2652e-11
Flow time = 736.4000000000001s, time step = 3682
18 more time steps

Updating solution at time level N... done.
Injecting 1734 particle parcels with mass 2e-11 at t = 736.4

Advancing DPM injections ....
number tracked = 479972, escaped = 182, aborted = 0, trapped = 1506, evaporated = 0, incomplete = 0, incomplete_parallel = 0

  iter     time/iter
Volume Averaged Variable at (0.000000 0.100000 1.300000) is 0.000000e+00
  step  flow-time  volflow_or  volflow_in volflow_cor     temp_p1    temp_max pressure_or pressure_dif pressure_cor mass_balance heat_balance      dpm_p2      dpm_or     dpm_cor
  3683  7.3660e+02 -2.1069e+00  2.1019e+00 -1.0800e-01  2.9410e+02  3.6344e+02  4.8395e+00  5.0040e+00 -1.6447e-01  3.8150e-08  1.1514e-01  0.0000e+00  0.0000e+00  8.2658e-11
Flow time = 736.6s, time step = 3683
17 more time steps

Updating solution at time level N... done.
Injecting 1734 particle parcels with mass 2e-11 at t = 736.6

Advancing DPM injections ....
number tracked = 480018, escaped = 187, aborted = 0, trapped = 1456, evaporated = 0, incomplete = 0, incomplete_parallel = 0

  iter     time/iter
Volume Averaged Variable at (0.000000 0.100000 1.300000) is 0.000000e+00
  step  flow-time  volflow_or  volflow_in volflow_cor     temp_p1    temp_max pressure_or pressure_dif pressure_cor mass_balance heat_balance      dpm_p2      dpm_or     dpm_cor
  3684  7.3680e+02 -2.1069e+00  2.1019e+00 -1.0800e-01  2.9410e+02  3.6344e+02  4.8395e+00  5.0040e+00 -1.6447e-01  3.8150e-08  1.1514e-01  0.0000e+00  0.0000e+00  8.2674e-11
Flow time = 736.8s, time step = 3684
16 more time steps

Updating solution at time level N... done.
Injecting 1734 particle parcels with mass 2e-11 at t = 736.8

Advancing DPM injections ....
number tracked = 480109, escaped = 177, aborted = 0, trapped = 1554, evaporated = 0, incomplete = 0, incomplete_parallel = 0

  iter     time/iter
Volume Averaged Variable at (0.000000 0.100000 1.300000) is 0.000000e+00
  step  flow-time  volflow_or  volflow_in volflow_cor     temp_p1    temp_max pressure_or pressure_dif pressure_cor mass_balance heat_balance      dpm_p2      dpm_or     dpm_cor
  3685  7.3700e+02 -2.1069e+00  2.1019e+00 -1.0800e-01  2.9410e+02  3.6344e+02  4.8395e+00  5.0040e+00 -1.6447e-01  3.8150e-08  1.1514e-01  0.0000e+00  0.0000e+00  8.2682e-11
Flow time = 737s, time step = 3685
15 more time steps

Updating solution at time level N... done.
Injecting 1734 particle parcels with mass 2e-11 at t = 737

Advancing DPM injections ....
number tracked = 480112, escaped = 200, aborted = 0, trapped = 1569, evaporated = 0, incomplete = 0, incomplete_parallel = 0

  iter     time/iter
Volume Averaged Variable at (0.000000 0.100000 1.300000) is 0.000000e+00
  step  flow-time  volflow_or  volflow_in volflow_cor     temp_p1    temp_max pressure_or pressure_dif pressure_cor mass_balance heat_balance      dpm_p2      dpm_or     dpm_cor
  3686  7.3720e+02 -2.1069e+00  2.1019e+00 -1.0800e-01  2.9410e+02  3.6344e+02  4.8395e+00  5.0040e+00 -1.6447e-01  3.8150e-08  1.1514e-01  0.0000e+00  0.0000e+00  8.2677e-11
Flow time = 737.2s, time step = 3686
14 more time steps

Updating solution at time level N... done.
Injecting 1734 particle parcels with mass 2e-11 at t = 737.2

Advancing DPM injections ....
number tracked = 480077, escaped = 188, aborted = 0, trapped = 1529, evaporated = 0, incomplete = 0, incomplete_parallel = 0

  iter     time/iter
Volume Averaged Variable at (0.000000 0.100000 1.300000) is 0.000000e+00
  step  flow-time  volflow_or  volflow_in volflow_cor     temp_p1    temp_max pressure_or pressure_dif pressure_cor mass_balance heat_balance      dpm_p2      dpm_or     dpm_cor
  3687  7.3740e+02 -2.1069e+00  2.1019e+00 -1.0800e-01  2.9410e+02  3.6344e+02  4.8395e+00  5.0040e+00 -1.6447e-01  3.8150e-08  1.1514e-01  0.0000e+00  0.0000e+00  8.2681e-11
Flow time = 737.4000000000001s, time step = 3687
13 more time steps

Updating solution at time level N... done.
Injecting 1734 particle parcels with mass 2e-11 at t = 737.4

Advancing DPM injections ....
number tracked = 480094, escaped = 201, aborted = 0, trapped = 1543, evaporated = 0, incomplete = 0, incomplete_parallel = 0

  iter     time/iter
Volume Averaged Variable at (0.000000 0.100000 1.300000) is 0.000000e+00
  step  flow-time  volflow_or  volflow_in volflow_cor     temp_p1    temp_max pressure_or pressure_dif pressure_cor mass_balance heat_balance      dpm_p2      dpm_or     dpm_cor
  3688  7.3760e+02 -2.1069e+00  2.1019e+00 -1.0800e-01  2.9410e+02  3.6344e+02  4.8395e+00  5.0040e+00 -1.6447e-01  3.8150e-08  1.1514e-01  0.0000e+00  0.0000e+00  8.2685e-11
Flow time = 737.6s, time step = 3688
12 more time steps

Updating solution at time level N... done.
Injecting 1734 particle parcels with mass 2e-11 at t = 737.6

Advancing DPM injections ....
number tracked = 480084, escaped = 185, aborted = 0, trapped = 1526, evaporated = 0, incomplete = 0, incomplete_parallel = 0

  iter     time/iter
Volume Averaged Variable at (0.000000 0.100000 1.300000) is 0.000000e+00
  step  flow-time  volflow_or  volflow_in volflow_cor     temp_p1    temp_max pressure_or pressure_dif pressure_cor mass_balance heat_balance      dpm_p2      dpm_or     dpm_cor
  3689  7.3780e+02 -2.1069e+00  2.1019e+00 -1.0800e-01  2.9410e+02  3.6344e+02  4.8395e+00  5.0040e+00 -1.6447e-01  3.8150e-08  1.1514e-01  0.0000e+00  0.0000e+00  8.2683e-11
Flow time = 737.8s, time step = 3689
11 more time steps

Updating solution at time level N... done.
Injecting 1734 particle parcels with mass 2e-11 at t = 737.8

Advancing DPM injections ....
number tracked = 480107, escaped = 196, aborted = 0, trapped = 1571, evaporated = 0, incomplete = 0, incomplete_parallel = 0

  iter     time/iter
Volume Averaged Variable at (0.000000 0.100000 1.300000) is 0.000000e+00
/file/read-macros controlruntime.scm
Loading "././controlruntime.scm"
Done.

> 
  step  flow-time  volflow_or  volflow_in volflow_cor     temp_p1    temp_max pressure_or pressure_dif pressure_cor mass_balance heat_balance      dpm_p2      dpm_or     dpm_cor
  3690  7.3800e+02 -2.1069e+00  2.1019e+00 -1.0800e-01  2.9410e+02  3.6344e+02  4.8395e+00  5.0040e+00 -1.6447e-01  3.8150e-08  1.1514e-01  0.0000e+00  0.0000e+00  8.2679e-11
Flow time = 738s, time step = 3690
10 more time steps

Updating solution at time level N... done.
Injecting 1734 particle parcels with mass 2e-11 at t = 738

Advancing DPM injections ....
number tracked = 480074, escaped = 188, aborted = 0, trapped = 1510, evaporated = 0, incomplete = 0, incomplete_parallel = 0

  iter     time/iter
Volume Averaged Variable at (0.000000 0.100000 1.300000) is 0.000000e+00
  step  flow-time  volflow_or  volflow_in volflow_cor     temp_p1    temp_max pressure_or pressure_dif pressure_cor mass_balance heat_balance      dpm_p2      dpm_or     dpm_cor
  3691  7.3820e+02 -2.1069e+00  2.1019e+00 -1.0800e-01  2.9410e+02  3.6344e+02  4.8395e+00  5.0040e+00 -1.6447e-01  3.8150e-08  1.1514e-01  0.0000e+00  0.0000e+00  8.2680e-11
Flow time = 738.2s, time step = 3691
9 more time steps

Updating solution at time level N... done.
Injecting 1734 particle parcels with mass 2e-11 at t = 738.2

Advancing DPM injections ....
number tracked = 480110, escaped = 212, aborted = 0, trapped = 1562, evaporated = 0, incomplete = 0, incomplete_parallel = 0

  iter     time/iter
Volume Averaged Variable at (0.000000 0.100000 1.300000) is 0.000000e+00
  step  flow-time  volflow_or  volflow_in volflow_cor     temp_p1    temp_max pressure_or pressure_dif pressure_cor mass_balance heat_balance      dpm_p2      dpm_or     dpm_cor
  3692  7.3840e+02 -2.1069e+00  2.1019e+00 -1.0800e-01  2.9410e+02  3.6344e+02  4.8395e+00  5.0040e+00 -1.6447e-01  3.8150e-08  1.1514e-01  0.0000e+00  0.0000e+00  8.2680e-11
Flow time = 738.4000000000001s, time step = 3692
8 more time steps

Updating solution at time level N... done.
Injecting 1734 particle parcels with mass 2e-11 at t = 738.4

Advancing DPM injections ....
number tracked = 480070, escaped = 196, aborted = 0, trapped = 1595, evaporated = 0, incomplete = 0, incomplete_parallel = 0

  iter     time/iter
Volume Averaged Variable at (0.000000 0.100000 1.300000) is 0.000000e+00
  step  flow-time  volflow_or  volflow_in volflow_cor     temp_p1    temp_max pressure_or pressure_dif pressure_cor mass_balance heat_balance      dpm_p2      dpm_or     dpm_cor
  3693  7.3860e+02 -2.1069e+00  2.1019e+00 -1.0800e-01  2.9410e+02  3.6344e+02  4.8395e+00  5.0040e+00 -1.6447e-01  3.8150e-08  1.1514e-01  0.0000e+00  0.0000e+00  8.2669e-11
Flow time = 738.6s, time step = 3693
7 more time steps

Updating solution at time level N... done.
Injecting 1734 particle parcels with mass 2e-11 at t = 738.6

Advancing DPM injections ....
number tracked = 480013, escaped = 169, aborted = 0, trapped = 1615, evaporated = 0, incomplete = 0, incomplete_parallel = 0

  iter     time/iter
Volume Averaged Variable at (0.000000 0.100000 1.300000) is 0.000000e+00
  step  flow-time  volflow_or  volflow_in volflow_cor     temp_p1    temp_max pressure_or pressure_dif pressure_cor mass_balance heat_balance      dpm_p2      dpm_or     dpm_cor
  3694  7.3880e+02 -2.1069e+00  2.1019e+00 -1.0800e-01  2.9410e+02  3.6344e+02  4.8395e+00  5.0040e+00 -1.6447e-01  3.8150e-08  1.1514e-01  0.0000e+00  0.0000e+00  8.2661e-11
Flow time = 738.8s, time step = 3694
6 more time steps

Updating solution at time level N... done.
Injecting 1734 particle parcels with mass 2e-11 at t = 738.8

Advancing DPM injections ....
number tracked = 479963, escaped = 204, aborted = 0, trapped = 1564, evaporated = 0, incomplete = 0, incomplete_parallel = 0

  iter     time/iter
Volume Averaged Variable at (0.000000 0.100000 1.300000) is 0.000000e+00
  step  flow-time  volflow_or  volflow_in volflow_cor     temp_p1    temp_max pressure_or pressure_dif pressure_cor mass_balance heat_balance      dpm_p2      dpm_or     dpm_cor
  3695  7.3900e+02 -2.1069e+00  2.1019e+00 -1.0800e-01  2.9410e+02  3.6344e+02  4.8395e+00  5.0040e+00 -1.6447e-01  3.8150e-08  1.1514e-01  0.0000e+00  0.0000e+00  8.2659e-11
Flow time = 739s, time step = 3695
5 more time steps

Updating solution at time level N... done.
Injecting 1734 particle parcels with mass 2e-11 at t = 739

Advancing DPM injections ....
number tracked = 479929, escaped = 205, aborted = 0, trapped = 1480, evaporated = 0, incomplete = 0, incomplete_parallel = 0

  iter     time/iter
Volume Averaged Variable at (0.000000 0.100000 1.300000) is 0.000000e+00
  step  flow-time  volflow_or  volflow_in volflow_cor     temp_p1    temp_max pressure_or pressure_dif pressure_cor mass_balance heat_balance      dpm_p2      dpm_or     dpm_cor
  3696  7.3920e+02 -2.1069e+00  2.1019e+00 -1.0800e-01  2.9410e+02  3.6344e+02  4.8395e+00  5.0040e+00 -1.6447e-01  3.8150e-08  1.1514e-01  0.0000e+00  0.0000e+00  8.2662e-11
Flow time = 739.2s, time step = 3696
4 more time steps

Updating solution at time level N... done.
Injecting 1734 particle parcels with mass 2e-11 at t = 739.2

Advancing DPM injections ....
number tracked = 479978, escaped = 182, aborted = 0, trapped = 1538, evaporated = 0, incomplete = 0, incomplete_parallel = 0

  iter     time/iter
Volume Averaged Variable at (0.000000 0.100000 1.300000) is 0.000000e+00
  step  flow-time  volflow_or  volflow_in volflow_cor     temp_p1    temp_max pressure_or pressure_dif pressure_cor mass_balance heat_balance      dpm_p2      dpm_or     dpm_cor
  3697  7.3940e+02 -2.1069e+00  2.1019e+00 -1.0800e-01  2.9410e+02  3.6344e+02  4.8395e+00  5.0040e+00 -1.6447e-01  3.8150e-08  1.1514e-01  0.0000e+00  0.0000e+00  8.2664e-11
Flow time = 739.4000000000001s, time step = 3697
3 more time steps

Updating solution at time level N... done.
Injecting 1734 particle parcels with mass 2e-11 at t = 739.4

Advancing DPM injections ....
number tracked = 479992, escaped = 188, aborted = 0, trapped = 1407, evaporated = 0, incomplete = 0, incomplete_parallel = 0

  iter     time/iter
Volume Averaged Variable at (0.000000 0.100000 1.300000) is 0.000000e+00
  step  flow-time  volflow_or  volflow_in volflow_cor     temp_p1    temp_max pressure_or pressure_dif pressure_cor mass_balance heat_balance      dpm_p2      dpm_or     dpm_cor
  3698  7.3960e+02 -2.1069e+00  2.1019e+00 -1.0800e-01  2.9410e+02  3.6344e+02  4.8395e+00  5.0040e+00 -1.6447e-01  3.8150e-08  1.1514e-01  0.0000e+00  0.0000e+00  8.2684e-11
Flow time = 739.6s, time step = 3698
2 more time steps

Updating solution at time level N... done.
Injecting 1734 particle parcels with mass 2e-11 at t = 739.6

Advancing DPM injections ....
number tracked = 480131, escaped = 209, aborted = 0, trapped = 1577, evaporated = 0, incomplete = 0, incomplete_parallel = 0

  iter     time/iter
Volume Averaged Variable at (0.000000 0.100000 1.300000) is 0.000000e+00
  step  flow-time  volflow_or  volflow_in volflow_cor     temp_p1    temp_max pressure_or pressure_dif pressure_cor mass_balance heat_balance      dpm_p2      dpm_or     dpm_cor
  3699  7.3980e+02 -2.1069e+00  2.1019e+00 -1.0800e-01  2.9410e+02  3.6344e+02  4.8395e+00  5.0040e+00 -1.6447e-01  3.8150e-08  1.1514e-01  0.0000e+00  0.0000e+00  8.2683e-11
Flow time = 739.8s, time step = 3699
1 more time step

Updating solution at time level N... done.
Injecting 1734 particle parcels with mass 2e-11 at t = 739.8

Advancing DPM injections ....
number tracked = 480079, escaped = 159, aborted = 0, trapped = 1500, evaporated = 0, incomplete = 0, incomplete_parallel = 0

  iter     time/iter
Volume Averaged Variable at (0.000000 0.100000 1.300000) is 0.000000e+00
/file/read-macros controlruntime.scm
Loading "././controlruntime.scm"
Done.

> 
  step  flow-time  volflow_or  volflow_in volflow_cor     temp_p1    temp_max pressure_or pressure_dif pressure_cor mass_balance heat_balance      dpm_p2      dpm_or     dpm_cor
  3700  7.4000e+02 -2.1069e+00  2.1019e+00 -1.0800e-01  2.9410e+02  3.6344e+02  4.8395e+00  5.0040e+00 -1.6447e-01  3.8150e-08  1.1514e-01  0.0000e+00  0.0000e+00  8.2689e-11
Flow time = 740s, time step = 3700
, invalid command [,]
, , , 

> ;
;
; solve/dpm-update
; report/dpm-summary
;
;
;
;
file/confirm-overwrite yes

> ; file/write-case OR-COR.cas.gz yes
file/write-data OR-COR.dat.gz yesHost receiving summary from compute node zero.

Writing "| gzip -2cfv > \"OR-COR.dat.gz\""...

Done.



> ;
;
exit 
Posting ANSYS Product Improvement Program performance data 
Done.
yes