/pdc/vol/ansys/19.1/v191/fluent/fluent19.1.0/bin/fluent -r19.1.0 3ddp -gu -slurm -t 72 -mpi=ibmmpi -pib -i journal.jou
/pdc/vol/ansys/19.1/v191/fluent/fluent19.1.0/cortex/lnamd64/cortex.19.1.0 -f fluent -gu -i journal.jou (fluent "3ddp -pinfiniband  -host -r19.1.0 -t72 -mpi=ibmmpi -path/pdc/vol/ansys/19.1/v191/fluent -ssh")

WARNING:
Specified graphics driver "x11" is not available on the current runtime environment.
The most appropriate graphics driver based on the current runtime environment is: "null".
Setting graphics driver to: "null".
/pdc/vol/ansys/19.1/v191/fluent/fluent19.1.0/bin/fluent -r19.1.0 3ddp -pinfiniband -host -t72 -mpi=ibmmpi -path/pdc/vol/ansys/19.1/v191/fluent -ssh -cx t02n08.pdc.kth.se:39852:38805
Starting /pdc/vol/ansys/19.1/v191/fluent/fluent19.1.0/lnamd64/3ddp_host/fluent.19.1.0 host -cx t02n08.pdc.kth.se:39852:38805 "(list (rpsetvar (QUOTE parallel/function) "fluent 3ddp -flux -node -r19.1.0 -t72 -pinfiniband -mpi=ibmmpi -ssh") (rpsetvar (QUOTE parallel/rhost) "") (rpsetvar (QUOTE parallel/ruser) "") (rpsetvar (QUOTE parallel/nprocs_string) "72") (rpsetvar (QUOTE parallel/auto-spawn?) #t) (rpsetvar (QUOTE parallel/trace-level) 0) (rpsetvar (QUOTE parallel/remote-shell) 1) (rpsetvar (QUOTE parallel/path) "/pdc/vol/ansys/19.1/v191/fluent") (rpsetvar (QUOTE parallel/hostsfile) "") )"

              Welcome to ANSYS Fluent Release 19.1

              Copyright 1987-2018 ANSYS, Inc. All Rights Reserved.
              Unauthorized use, distribution or duplication is prohibited.
              This product is subject to U.S. laws governing export and re-export.
              For full Legal Notice, see documentation.

Build Time: Apr 09 2018 13:46:05 EDT  Build Id: 10123  
 

     --------------------------------------------------------------
     This is an academic version of ANSYS FLUENT. Usage of this product
     license is limited to the terms and conditions specified in your ANSYS
     license form, additional terms section.
     --------------------------------------------------------------
Host spawning Node 0 on machine "t02n08.pdc.kth.se" (unix).
/pdc/vol/ansys/19.1/v191/fluent/fluent19.1.0/bin/fluent -r19.1.0 3ddp -flux -node -t72 -pinfiniband -mpi=ibmmpi -ssh -mport 193.10.157.112:193.10.157.112:44769:0
-- srun ibmmpi launch --
Starting /pdc/vol/ansys/19.1/v191/fluent/fluent19.1.0/multiport/mpi/lnamd64/ibmmpi/bin/mpirun -e MPI_IBV_NO_FORK_SAFE=1 -e MPI_USE_MALLOPT_MMAP_MAX=0 -prot -IBV -e MPI_HASIC_IBV=1 -srun -n 72 /pdc/vol/ansys/19.1/v191/fluent/fluent19.1.0/lnamd64/3ddp_node/fluent_mpi.19.1.0 node -mpiw ibmmpi -pic infiniband -mport 193.10.157.112:193.10.157.112:44769:0
Host 0 -- ip 193.10.157.112 -- ranks 0 - 23
Host 1 -- ip 193.10.157.124 -- ranks 24 - 47
Host 2 -- ip 193.10.157.129 -- ranks 48 - 71

 host | 0    1    2
======|================
    0 : SHM  IBV  IBV
    1 : IBV  SHM  IBV
    2 : IBV  IBV  SHM

 Prot -  All Intra-node communication is: SHM
 Prot -  All Inter-node communication is: IBV


--------------------------------------------------------------------------------------
ID      Hostname           Core   O.S.      PID          Vendor                      
--------------------------------------------------------------------------------------
n48-71  t02n34.pdc.kth.se  24/48  Linux-64  7696-7719    Intel(R) Xeon(R) E5-2690 v3 
n24-47  t02n29.pdc.kth.se  24/48  Linux-64  4262-4285    Intel(R) Xeon(R) E5-2690 v3 
n0-23   t02n08.pdc.kth.se  24/48  Linux-64  13625-13648  Intel(R) Xeon(R) E5-2690 v3 
host    t02n08.pdc.kth.se         Linux-64  13439        Intel(R) Xeon(R) E5-2690 v3 

MPI Option Selected: ibmmpi
Selected system interconnect: InfiniBand
--------------------------------------------------------------------------------------


Posting ANSYS Product Improvement Program startup data
Done.

Reading journal file journal.jou...

> ;
;
file/read-case OR-COR-14.cas.gz

Multicore SMT processors detected. Processor affinity set!

Reading "\"| gunzip -c \\\"OR-COR-14.cas.gz\\\"\""...

Buffering for file scan...



 9386898 mixed cells, zone 73, binary.
 3946867 mixed cells, zone 74, binary.
 9386898 cell partition ids, zone 73, 72 partitions, binary.
 3946867 cell partition ids, zone 74, 72 partitions, binary.
19350142 mixed interior faces, zone 244, binary.
 8081244 mixed interior faces, zone 245, binary.
     574 mixed wall faces, zone 77, binary.
     574 mixed wall faces, zone 48, binary.
     574 mixed wall faces, zone 78, binary.
     574 mixed wall faces, zone 49, binary.
     574 mixed wall faces, zone 79, binary.
     574 mixed wall faces, zone 46, binary.
     574 mixed wall faces, zone 80, binary.
     574 mixed wall faces, zone 47, binary.
     574 mixed wall faces, zone 81, binary.
     574 mixed wall faces, zone 50, binary.
     898 mixed jump faces, zone 82, binary.
     574 mixed wall faces, zone 83, binary.
     574 mixed wall faces, zone 40, binary.
     574 mixed wall faces, zone 84, binary.
     574 mixed wall faces, zone 41, binary.
     574 mixed wall faces, zone 85, binary.
     574 mixed wall faces, zone 38, binary.
     574 mixed wall faces, zone 86, binary.
     574 mixed wall faces, zone 39, binary.
     574 mixed wall faces, zone 87, binary.
     574 mixed wall faces, zone 44, binary.
     574 mixed wall faces, zone 88, binary.
     574 mixed wall faces, zone 45, binary.
     574 mixed wall faces, zone 89, binary.
     574 mixed wall faces, zone 42, binary.
     572 mixed wall faces, zone 90, binary.
     572 mixed wall faces, zone 43, binary.
     574 mixed wall faces, zone 91, binary.
     574 mixed wall faces, zone 32, binary.
     572 mixed wall faces, zone 92, binary.
     572 mixed wall faces, zone 33, binary.
     574 mixed wall faces, zone 93, binary.
     574 mixed wall faces, zone 30, binary.
     572 mixed wall faces, zone 94, binary.
     572 mixed wall faces, zone 31, binary.
     574 mixed wall faces, zone 95, binary.
     574 mixed wall faces, zone 36, binary.
     572 mixed wall faces, zone 96, binary.
     572 mixed wall faces, zone 37, binary.
     574 mixed wall faces, zone 97, binary.
     574 mixed wall faces, zone 34, binary.
     572 mixed wall faces, zone 98, binary.
     572 mixed wall faces, zone 35, binary.
     574 mixed wall faces, zone 99, binary.
     574 mixed wall faces, zone 24, binary.
     572 mixed wall faces, zone 100, binary.
     572 mixed wall faces, zone 25, binary.
     574 mixed wall faces, zone 101, binary.
     574 mixed wall faces, zone 22, binary.
     574 mixed wall faces, zone 102, binary.
     574 mixed wall faces, zone 23, binary.
     572 mixed wall faces, zone 103, binary.
     572 mixed wall faces, zone 28, binary.
     572 mixed wall faces, zone 104, binary.
     572 mixed wall faces, zone 29, binary.
     574 mixed wall faces, zone 105, binary.
     574 mixed wall faces, zone 26, binary.
     572 mixed wall faces, zone 106, binary.
     572 mixed wall faces, zone 27, binary.
     574 mixed wall faces, zone 107, binary.
     574 mixed wall faces, zone 16, binary.
     574 mixed wall faces, zone 108, binary.
     574 mixed wall faces, zone 17, binary.
     574 mixed wall faces, zone 109, binary.
     574 mixed wall faces, zone 14, binary.
     574 mixed wall faces, zone 110, binary.
     574 mixed wall faces, zone 15, binary.
     574 mixed wall faces, zone 111, binary.
     574 mixed wall faces, zone 20, binary.
     574 mixed wall faces, zone 112, binary.
     574 mixed wall faces, zone 21, binary.
     574 mixed wall faces, zone 113, binary.
     574 mixed wall faces, zone 18, binary.
     574 mixed wall faces, zone 114, binary.
     574 mixed wall faces, zone 19, binary.
     574 mixed wall faces, zone 115, binary.
     574 mixed wall faces, zone  8, binary.
     574 mixed wall faces, zone 116, binary.
     574 mixed wall faces, zone  9, binary.
     574 mixed wall faces, zone 117, binary.
     574 mixed wall faces, zone  6, binary.
     574 mixed wall faces, zone 118, binary.
     574 mixed wall faces, zone  7, binary.
     574 mixed wall faces, zone 119, binary.
     574 mixed wall faces, zone 12, binary.
     574 mixed wall faces, zone 120, binary.
     574 mixed wall faces, zone 13, binary.
     574 mixed wall faces, zone 121, binary.
     574 mixed wall faces, zone 10, binary.
     574 mixed wall faces, zone 122, binary.
     574 mixed wall faces, zone 11, binary.
     574 mixed wall faces, zone 123, binary.
     574 mixed wall faces, zone  4, binary.
     574 mixed wall faces, zone 124, binary.
     574 mixed wall faces, zone  5, binary.
     976 mixed wall faces, zone 125, binary.
     976 mixed wall faces, zone  2, binary.
     574 mixed wall faces, zone 126, binary.
     574 mixed wall faces, zone  3, binary.
   42971 triangular velocity-inlet faces, zone 127, binary.
    3750 triangular pressure-outlet faces, zone 128, binary.
    1734 triangular velocity-inlet faces, zone 129, binary.
    1204 triangular pressure-outlet faces, zone 130, binary.
  193965 triangular wall faces, zone 131, binary.
   98169 triangular wall faces, zone 132, binary.
    7945 triangular wall faces, zone 133, binary.
   37956 triangular wall faces, zone 134, binary.
    1826 triangular wall faces, zone 135, binary.
     916 triangular wall faces, zone 136, binary.
    6079 triangular wall faces, zone 137, binary.
     117 triangular wall faces, zone 138, binary.
     574 shadow face pairs, binary. 
     574 shadow face pairs, binary. 
     574 shadow face pairs, binary. 
     574 shadow face pairs, binary. 
     574 shadow face pairs, binary. 
     574 shadow face pairs, binary. 
     574 shadow face pairs, binary. 
     574 shadow face pairs, binary. 
     574 shadow face pairs, binary. 
     574 shadow face pairs, binary. 
     574 shadow face pairs, binary. 
     574 shadow face pairs, binary. 
     572 shadow face pairs, binary. 
     574 shadow face pairs, binary. 
     572 shadow face pairs, binary. 
     574 shadow face pairs, binary. 
     572 shadow face pairs, binary. 
     574 shadow face pairs, binary. 
     572 shadow face pairs, binary. 
     574 shadow face pairs, binary. 
     572 shadow face pairs, binary. 
     574 shadow face pairs, binary. 
     572 shadow face pairs, binary. 
     574 shadow face pairs, binary. 
     574 shadow face pairs, binary. 
     572 shadow face pairs, binary. 
     572 shadow face pairs, binary. 
     574 shadow face pairs, binary. 
     572 shadow face pairs, binary. 
     574 shadow face pairs, binary. 
     574 shadow face pairs, binary. 
     574 shadow face pairs, binary. 
     574 shadow face pairs, binary. 
     574 shadow face pairs, binary. 
     574 shadow face pairs, binary. 
     574 shadow face pairs, binary. 
     574 shadow face pairs, binary. 
     574 shadow face pairs, binary. 
     574 shadow face pairs, binary. 
     574 shadow face pairs, binary. 
     574 shadow face pairs, binary. 
     574 shadow face pairs, binary. 
     574 shadow face pairs, binary. 
     574 shadow face pairs, binary. 
     574 shadow face pairs, binary. 
     574 shadow face pairs, binary. 
     574 shadow face pairs, binary. 
     976 shadow face pairs, binary. 
     574 shadow face pairs, binary. 
 3001079 nodes, binary.
3001079 node flags, binary.
  348480 "or-inlet-profile" point-profile points, x, y, z, u, v, w.
   80802 "cor-inlet-profile" point-profile points, x, y, z, u, v, w.

Checking the existence of compiled "libudf" UDF library for current platform.
If needed will attempt auto-compilation...





Copied /cfs/klemming/scratch/c/congwang/Fluent/New/transient/winter/case5-1/./ave.c to libudf/src
udf_names.c and user.udf files are 3ddp_host upto date.
udf_names.c and user.udf files are 3ddp_node upto date.


Working...
for d in lnamd64/[23]*; do \
  ( \
    cd $d; \
	rm -rf *.{c,h,cpp,hpp}; \
    for f in ../../src/*.{c,h,cpp,hpp} ../../src/makefile ../../src/user.udf; do \
      if [ -f $f -a ! -f `basename $f` ]; then \
        echo "# linking to" $f "in" $d; \
        ln -s $f .; \
      fi; \
    done; \
    echo ""; \
    echo "# building library in" $d; \
    if [ "" = "1" ]; then \
	echo "# using gcc64"; \
	make ARCHC=gcc64 -k>makelog 2>&1; \
    else \
	if [ "" = "1" ]; then \
		echo "# using gcc"; \
		make ARCHC=gcc -k>makelog 2>&1; \
	else \
		make -k>makelog 2>&1; \
	fi; \
    fi;\
    cat makelog; \
  ) \
done
# linking to ../../src/ave.c in lnamd64/3ddp_host

# building library in lnamd64/3ddp_host
make[1]: Entering directory `/cfs/klemming/scratch/c/congwang/Fluent/New/transient/winter/case5-1/libudf/lnamd64/3ddp_host'
# Generating udf_names.c because of makefile ave.c
make[2]: Entering directory `/cfs/klemming/scratch/c/congwang/Fluent/New/transient/winter/case5-1/libudf/lnamd64/3ddp_host'
make libudf.so "CFLAGS=-D_lnamd64 -D_GNU_SOURCE -fpic -shared -ansi -Wall -O -DPTR_RESTRICT=   " "LDFLAGS=-shared -lm"
make[3]: Entering directory `/cfs/klemming/scratch/c/congwang/Fluent/New/transient/winter/case5-1/libudf/lnamd64/3ddp_host'
# Linking libudf.so because of udf_names.c
cc -shared -lm udf_names.o ave.o  -o libudf.so
make[3]: Leaving directory `/cfs/klemming/scratch/c/congwang/Fluent/New/transient/winter/case5-1/libudf/lnamd64/3ddp_host'
make[2]: Leaving directory `/cfs/klemming/scratch/c/congwang/Fluent/New/transient/winter/case5-1/libudf/lnamd64/3ddp_host'
make[1]: Leaving directory `/cfs/klemming/scratch/c/congwang/Fluent/New/transient/winter/case5-1/libudf/lnamd64/3ddp_host'
# linking to ../../src/ave.c in lnamd64/3ddp_node

# building library in lnamd64/3ddp_node
make[1]: Entering directory `/cfs/klemming/scratch/c/congwang/Fluent/New/transient/winter/case5-1/libudf/lnamd64/3ddp_node'
# Generating udf_names.c because of makefile ave.c
make[2]: Entering directory `/cfs/klemming/scratch/c/congwang/Fluent/New/transient/winter/case5-1/libudf/lnamd64/3ddp_node'
make libudf.so "CFLAGS=-D_lnamd64 -D_GNU_SOURCE -fpic -shared -ansi -Wall -O -DPTR_RESTRICT=   " "LDFLAGS=-shared -lm"
make[3]: Entering directory `/cfs/klemming/scratch/c/congwang/Fluent/New/transient/winter/case5-1/libudf/lnamd64/3ddp_node'
# Linking libudf.so because of udf_names.c
cc -shared -lm udf_names.o ave.o  -o libudf.so
make[3]: Leaving directory `/cfs/klemming/scratch/c/congwang/Fluent/New/transient/winter/case5-1/libudf/lnamd64/3ddp_node'
make[2]: Leaving directory `/cfs/klemming/scratch/c/congwang/Fluent/New/transient/winter/case5-1/libudf/lnamd64/3ddp_node'
make[1]: Leaving directory `/cfs/klemming/scratch/c/congwang/Fluent/New/transient/winter/case5-1/libudf/lnamd64/3ddp_node'

You can also see the 'log'-file in 
the working directory for this compilation history

Done.
Auto-compilation checking of "libudf"...Done

Opening library "/cfs/klemming/scratch/c/congwang/Fluent/New/transient/winter/case5-1/libudf"...
Library "/cfs/klemming/scratch/c/congwang/Fluent/New/transient/winter/case5-1/libudf/lnamd64/3ddp_host/libudf.so" opened
Opening library "/cfs/klemming/scratch/c/congwang/Fluent/New/transient/winter/case5-1/libudf"...
Library "/cfs/klemming/scratch/c/congwang/Fluent/New/transient/winter/case5-1/libudf/lnamd64/3ddp_node/libudf.so" opened
	vol_ave_var
Done.

Opening library "/cfs/klemming/scratch/c/congwang/Fluent/New/transient/winter/case5-1/libudf"...
Library "/cfs/klemming/scratch/c/congwang/Fluent/New/transient/winter/case5-1/libudf/lnamd64/3ddp_node/libudf.so" opened
Opening library "/cfs/klemming/scratch/c/congwang/Fluent/New/transient/winter/case5-1/libudf"...
Library "/cfs/klemming/scratch/c/congwang/Fluent/New/transient/winter/case5-1/libudf/lnamd64/3ddp_node/libudf.so" opened
Opening library "/cfs/klemming/scratch/c/congwang/Fluent/New/transient/winter/case5-1/libudf"...
Library "/cfs/klemming/scratch/c/congwang/Fluent/New/transient/winter/case5-1/libudf/lnamd64/3ddp_node/libudf.so" opened
Opening library "/cfs/klemming/scratch/c/congwang/Fluent/New/transient/winter/case5-1/libudf"...
Library "/cfs/klemming/scratch/c/congwang/Fluent/New/transient/winter/case5-1/libudf/lnamd64/3ddp_node/libudf.so" opened
Opening library "/cfs/klemming/scratch/c/congwang/Fluent/New/transient/winter/case5-1/libudf"...
Library "/cfs/klemming/scratch/c/congwang/Fluent/New/transient/winter/case5-1/libudf/lnamd64/3ddp_node/libudf.so" opened
Opening library "/cfs/klemming/scratch/c/congwang/Fluent/New/transient/winter/case5-1/libudf"...
Library "/cfs/klemming/scratch/c/congwang/Fluent/New/transient/winter/case5-1/libudf/lnamd64/3ddp_node/libudf.so" opened
Opening library "/cfs/klemming/scratch/c/congwang/Fluent/New/transient/winter/case5-1/libudf"...
Library "/cfs/klemming/scratch/c/congwang/Fluent/New/transient/winter/case5-1/libudf/lnamd64/3ddp_node/libudf.so" opened
Opening library "/cfs/klemming/scratch/c/congwang/Fluent/New/transient/winter/case5-1/libudf"...
Library "/cfs/klemming/scratch/c/congwang/Fluent/New/transient/winter/case5-1/libudf/lnamd64/3ddp_node/libudf.so" opened
Opening library "/cfs/klemming/scratch/c/congwang/Fluent/New/transient/winter/case5-1/libudf"...
Library "/cfs/klemming/scratch/c/congwang/Fluent/New/transient/winter/case5-1/libudf/lnamd64/3ddp_node/libudf.so" opened
Opening library "/cfs/klemming/scratch/c/congwang/Fluent/New/transient/winter/case5-1/libudf"...
Library "/cfs/klemming/scratch/c/congwang/Fluent/New/transient/winter/case5-1/libudf/lnamd64/3ddp_node/libudf.so" opened
Opening library "/cfs/klemming/scratch/c/congwang/Fluent/New/transient/winter/case5-1/libudf"...
Library "/cfs/klemming/scratch/c/congwang/Fluent/New/transient/winter/case5-1/libudf/lnamd64/3ddp_node/libudf.so" opened
Opening library "/cfs/klemming/scratch/c/congwang/Fluent/New/transient/winter/case5-1/libudf"...
Library "/cfs/klemming/scratch/c/congwang/Fluent/New/transient/winter/case5-1/libudf/lnamd64/3ddp_node/libudf.so" opened
Opening library "/cfs/klemming/scratch/c/congwang/Fluent/New/transient/winter/case5-1/libudf"...
Library "/cfs/klemming/scratch/c/congwang/Fluent/New/transient/winter/case5-1/libudf/lnamd64/3ddp_node/libudf.so" opened
Opening library "/cfs/klemming/scratch/c/congwang/Fluent/New/transient/winter/case5-1/libudf"...
Library "/cfs/klemming/scratch/c/congwang/Fluent/New/transient/winter/case5-1/libudf/lnamd64/3ddp_node/libudf.so" opened
Opening library "/cfs/klemming/scratch/c/congwang/Fluent/New/transient/winter/case5-1/libudf"...
Library "/cfs/klemming/scratch/c/congwang/Fluent/New/transient/winter/case5-1/libudf/lnamd64/3ddp_node/libudf.so" opened
Opening library "/cfs/klemming/scratch/c/congwang/Fluent/New/transient/winter/case5-1/libudf"...
Library "/cfs/klemming/scratch/c/congwang/Fluent/New/transient/winter/case5-1/libudf/lnamd64/3ddp_node/libudf.so" opened
Opening library "/cfs/klemming/scratch/c/congwang/Fluent/New/transient/winter/case5-1/libudf"...
Library "/cfs/klemming/scratch/c/congwang/Fluent/New/transient/winter/case5-1/libudf/lnamd64/3ddp_node/libudf.so" opened
Opening library "/cfs/klemming/scratch/c/congwang/Fluent/New/transient/winter/case5-1/libudf"...
Library "/cfs/klemming/scratch/c/congwang/Fluent/New/transient/winter/case5-1/libudf/lnamd64/3ddp_node/libudf.so" opened
Opening library "/cfs/klemming/scratch/c/congwang/Fluent/New/transient/winter/case5-1/libudf"...
Library "/cfs/klemming/scratch/c/congwang/Fluent/New/transient/winter/case5-1/libudf/lnamd64/3ddp_node/libudf.so" opened
Opening library "/cfs/klemming/scratch/c/congwang/Fluent/New/transient/winter/case5-1/libudf"...
Library "/cfs/klemming/scratch/c/congwang/Fluent/New/transient/winter/case5-1/libudf/lnamd64/3ddp_node/libudf.so" opened
Opening library "/cfs/klemming/scratch/c/congwang/Fluent/New/transient/winter/case5-1/libudf"...
Library "/cfs/klemming/scratch/c/congwang/Fluent/New/transient/winter/case5-1/libudf/lnamd64/3ddp_node/libudf.so" opened
Opening library "/cfs/klemming/scratch/c/congwang/Fluent/New/transient/winter/case5-1/libudf"...
Library "/cfs/klemming/scratch/c/congwang/Fluent/New/transient/winter/case5-1/libudf/lnamd64/3ddp_node/libudf.so" opened
Opening library "/cfs/klemming/scratch/c/congwang/Fluent/New/transient/winter/case5-1/libudf"...
Library "/cfs/klemming/scratch/c/congwang/Fluent/New/transient/winter/case5-1/libudf/lnamd64/3ddp_node/libudf.so" opened
Opening library "/cfs/klemming/scratch/c/congwang/Fluent/New/transient/winter/case5-1/libudf"...
Library "/cfs/klemming/scratch/c/congwang/Fluent/New/transient/winter/case5-1/libudf/lnamd64/3ddp_node/libudf.so" opened
Opening library "/cfs/klemming/scratch/c/congwang/Fluent/New/transient/winter/case5-1/libudf"...
Library "/cfs/klemming/scratch/c/congwang/Fluent/New/transient/winter/case5-1/libudf/lnamd64/3ddp_node/libudf.so" opened
Opening library "/cfs/klemming/scratch/c/congwang/Fluent/New/transient/winter/case5-1/libudf"...
Library "/cfs/klemming/scratch/c/congwang/Fluent/New/transient/winter/case5-1/libudf/lnamd64/3ddp_node/libudf.so" opened
Opening library "/cfs/klemming/scratch/c/congwang/Fluent/New/transient/winter/case5-1/libudf"...
Library "/cfs/klemming/scratch/c/congwang/Fluent/New/transient/winter/case5-1/libudf/lnamd64/3ddp_node/libudf.so" opened
Opening library "/cfs/klemming/scratch/c/congwang/Fluent/New/transient/winter/case5-1/libudf"...
Library "/cfs/klemming/scratch/c/congwang/Fluent/New/transient/winter/case5-1/libudf/lnamd64/3ddp_node/libudf.so" opened
Opening library "/cfs/klemming/scratch/c/congwang/Fluent/New/transient/winter/case5-1/libudf"...
Library "/cfs/klemming/scratch/c/congwang/Fluent/New/transient/winter/case5-1/libudf/lnamd64/3ddp_node/libudf.so" opened
Opening library "/cfs/klemming/scratch/c/congwang/Fluent/New/transient/winter/case5-1/libudf"...
Library "/cfs/klemming/scratch/c/congwang/Fluent/New/transient/winter/case5-1/libudf/lnamd64/3ddp_node/libudf.so" opened
Opening library "/cfs/klemming/scratch/c/congwang/Fluent/New/transient/winter/case5-1/libudf"...
Library "/cfs/klemming/scratch/c/congwang/Fluent/New/transient/winter/case5-1/libudf/lnamd64/3ddp_node/libudf.so" opened
Opening library "/cfs/klemming/scratch/c/congwang/Fluent/New/transient/winter/case5-1/libudf"...
Library "/cfs/klemming/scratch/c/congwang/Fluent/New/transient/winter/case5-1/libudf/lnamd64/3ddp_node/libudf.so" opened
Opening library "/cfs/klemming/scratch/c/congwang/Fluent/New/transient/winter/case5-1/libudf"...
Library "/cfs/klemming/scratch/c/congwang/Fluent/New/transient/winter/case5-1/libudf/lnamd64/3ddp_node/libudf.so" opened
Opening library "/cfs/klemming/scratch/c/congwang/Fluent/New/transient/winter/case5-1/libudf"...
Library "/cfs/klemming/scratch/c/congwang/Fluent/New/transient/winter/case5-1/libudf/lnamd64/3ddp_node/libudf.so" opened
Opening library "/cfs/klemming/scratch/c/congwang/Fluent/New/transient/winter/case5-1/libudf"...
Library "/cfs/klemming/scratch/c/congwang/Fluent/New/transient/winter/case5-1/libudf/lnamd64/3ddp_node/libudf.so" opened
Opening library "/cfs/klemming/scratch/c/congwang/Fluent/New/transient/winter/case5-1/libudf"...
Library "/cfs/klemming/scratch/c/congwang/Fluent/New/transient/winter/case5-1/libudf/lnamd64/3ddp_node/libudf.so" opened
Opening library "/cfs/klemming/scratch/c/congwang/Fluent/New/transient/winter/case5-1/libudf"...
Library "/cfs/klemming/scratch/c/congwang/Fluent/New/transient/winter/case5-1/libudf/lnamd64/3ddp_node/libudf.so" opened
Opening library "/cfs/klemming/scratch/c/congwang/Fluent/New/transient/winter/case5-1/libudf"...
Library "/cfs/klemming/scratch/c/congwang/Fluent/New/transient/winter/case5-1/libudf/lnamd64/3ddp_node/libudf.so" opened
Opening library "/cfs/klemming/scratch/c/congwang/Fluent/New/transient/winter/case5-1/libudf"...
Library "/cfs/klemming/scratch/c/congwang/Fluent/New/transient/winter/case5-1/libudf/lnamd64/3ddp_node/libudf.so" opened
Opening library "/cfs/klemming/scratch/c/congwang/Fluent/New/transient/winter/case5-1/libudf"...
Library "/cfs/klemming/scratch/c/congwang/Fluent/New/transient/winter/case5-1/libudf/lnamd64/3ddp_node/libudf.so" opened
Opening library "/cfs/klemming/scratch/c/congwang/Fluent/New/transient/winter/case5-1/libudf"...
Library "/cfs/klemming/scratch/c/congwang/Fluent/New/transient/winter/case5-1/libudf/lnamd64/3ddp_node/libudf.so" opened
Opening library "/cfs/klemming/scratch/c/congwang/Fluent/New/transient/winter/case5-1/libudf"...
Library "/cfs/klemming/scratch/c/congwang/Fluent/New/transient/winter/case5-1/libudf/lnamd64/3ddp_node/libudf.so" opened
Opening library "/cfs/klemming/scratch/c/congwang/Fluent/New/transient/winter/case5-1/libudf"...
Library "/cfs/klemming/scratch/c/congwang/Fluent/New/transient/winter/case5-1/libudf/lnamd64/3ddp_node/libudf.so" opened
Opening library "/cfs/klemming/scratch/c/congwang/Fluent/New/transient/winter/case5-1/libudf"...
Library "/cfs/klemming/scratch/c/congwang/Fluent/New/transient/winter/case5-1/libudf/lnamd64/3ddp_node/libudf.so" opened
Opening library "/cfs/klemming/scratch/c/congwang/Fluent/New/transient/winter/case5-1/libudf"...
Library "/cfs/klemming/scratch/c/congwang/Fluent/New/transient/winter/case5-1/libudf/lnamd64/3ddp_node/libudf.so" opened
Opening library "/cfs/klemming/scratch/c/congwang/Fluent/New/transient/winter/case5-1/libudf"...
Library "/cfs/klemming/scratch/c/congwang/Fluent/New/transient/winter/case5-1/libudf/lnamd64/3ddp_node/libudf.so" opened
Opening library "/cfs/klemming/scratch/c/congwang/Fluent/New/transient/winter/case5-1/libudf"...
Library "/cfs/klemming/scratch/c/congwang/Fluent/New/transient/winter/case5-1/libudf/lnamd64/3ddp_node/libudf.so" opened
Opening library "/cfs/klemming/scratch/c/congwang/Fluent/New/transient/winter/case5-1/libudf"...
Library "/cfs/klemming/scratch/c/congwang/Fluent/New/transient/winter/case5-1/libudf/lnamd64/3ddp_node/libudf.so" opened
Opening library "/cfs/klemming/scratch/c/congwang/Fluent/New/transient/winter/case5-1/libudf"...
Library "/cfs/klemming/scratch/c/congwang/Fluent/New/transient/winter/case5-1/libudf/lnamd64/3ddp_node/libudf.so" opened
Opening library "/cfs/klemming/scratch/c/congwang/Fluent/New/transient/winter/case5-1/libudf"...
Library "/cfs/klemming/scratch/c/congwang/Fluent/New/transient/winter/case5-1/libudf/lnamd64/3ddp_node/libudf.so" opened
Opening library "/cfs/klemming/scratch/c/congwang/Fluent/New/transient/winter/case5-1/libudf"...
Library "/cfs/klemming/scratch/c/congwang/Fluent/New/transient/winter/case5-1/libudf/lnamd64/3ddp_node/libudf.so" opened
Opening library "/cfs/klemming/scratch/c/congwang/Fluent/New/transient/winter/case5-1/libudf"...
Library "/cfs/klemming/scratch/c/congwang/Fluent/New/transient/winter/case5-1/libudf/lnamd64/3ddp_node/libudf.so" opened
Opening library "/cfs/klemming/scratch/c/congwang/Fluent/New/transient/winter/case5-1/libudf"...
Library "/cfs/klemming/scratch/c/congwang/Fluent/New/transient/winter/case5-1/libudf/lnamd64/3ddp_node/libudf.so" opened
Opening library "/cfs/klemming/scratch/c/congwang/Fluent/New/transient/winter/case5-1/libudf"...
Library "/cfs/klemming/scratch/c/congwang/Fluent/New/transient/winter/case5-1/libudf/lnamd64/3ddp_node/libudf.so" opened
Opening library "/cfs/klemming/scratch/c/congwang/Fluent/New/transient/winter/case5-1/libudf"...
Library "/cfs/klemming/scratch/c/congwang/Fluent/New/transient/winter/case5-1/libudf/lnamd64/3ddp_node/libudf.so" opened
Opening library "/cfs/klemming/scratch/c/congwang/Fluent/New/transient/winter/case5-1/libudf"...
Library "/cfs/klemming/scratch/c/congwang/Fluent/New/transient/winter/case5-1/libudf/lnamd64/3ddp_node/libudf.so" opened
Opening library "/cfs/klemming/scratch/c/congwang/Fluent/New/transient/winter/case5-1/libudf"...
Library "/cfs/klemming/scratch/c/congwang/Fluent/New/transient/winter/case5-1/libudf/lnamd64/3ddp_node/libudf.so" opened
Opening library "/cfs/klemming/scratch/c/congwang/Fluent/New/transient/winter/case5-1/libudf"...
Library "/cfs/klemming/scratch/c/congwang/Fluent/New/transient/winter/case5-1/libudf/lnamd64/3ddp_node/libudf.so" opened
Opening library "/cfs/klemming/scratch/c/congwang/Fluent/New/transient/winter/case5-1/libudf"...
Library "/cfs/klemming/scratch/c/congwang/Fluent/New/transient/winter/case5-1/libudf/lnamd64/3ddp_node/libudf.so" opened
Opening library "/cfs/klemming/scratch/c/congwang/Fluent/New/transient/winter/case5-1/libudf"...
Library "/cfs/klemming/scratch/c/congwang/Fluent/New/transient/winter/case5-1/libudf/lnamd64/3ddp_node/libudf.so" opened
Opening library "/cfs/klemming/scratch/c/congwang/Fluent/New/transient/winter/case5-1/libudf"...
Library "/cfs/klemming/scratch/c/congwang/Fluent/New/transient/winter/case5-1/libudf/lnamd64/3ddp_node/libudf.so" opened
Opening library "/cfs/klemming/scratch/c/congwang/Fluent/New/transient/winter/case5-1/libudf"...
Library "/cfs/klemming/scratch/c/congwang/Fluent/New/transient/winter/case5-1/libudf/lnamd64/3ddp_node/libudf.so" opened
Opening library "/cfs/klemming/scratch/c/congwang/Fluent/New/transient/winter/case5-1/libudf"...
Library "/cfs/klemming/scratch/c/congwang/Fluent/New/transient/winter/case5-1/libudf/lnamd64/3ddp_node/libudf.so" opened
Opening library "/cfs/klemming/scratch/c/congwang/Fluent/New/transient/winter/case5-1/libudf"...
Library "/cfs/klemming/scratch/c/congwang/Fluent/New/transient/winter/case5-1/libudf/lnamd64/3ddp_node/libudf.so" opened
Opening library "/cfs/klemming/scratch/c/congwang/Fluent/New/transient/winter/case5-1/libudf"...
Library "/cfs/klemming/scratch/c/congwang/Fluent/New/transient/winter/case5-1/libudf/lnamd64/3ddp_node/libudf.so" opened
Opening library "/cfs/klemming/scratch/c/congwang/Fluent/New/transient/winter/case5-1/libudf"...
Library "/cfs/klemming/scratch/c/congwang/Fluent/New/transient/winter/case5-1/libudf/lnamd64/3ddp_node/libudf.so" opened
Opening library "/cfs/klemming/scratch/c/congwang/Fluent/New/transient/winter/case5-1/libudf"...
Library "/cfs/klemming/scratch/c/congwang/Fluent/New/transient/winter/case5-1/libudf/lnamd64/3ddp_node/libudf.so" opened
Opening library "/cfs/klemming/scratch/c/congwang/Fluent/New/transient/winter/case5-1/libudf"...
Library "/cfs/klemming/scratch/c/congwang/Fluent/New/transient/winter/case5-1/libudf/lnamd64/3ddp_node/libudf.so" opened
Opening library "/cfs/klemming/scratch/c/congwang/Fluent/New/transient/winter/case5-1/libudf"...
Library "/cfs/klemming/scratch/c/congwang/Fluent/New/transient/winter/case5-1/libudf/lnamd64/3ddp_node/libudf.so" opened
Opening library "/cfs/klemming/scratch/c/congwang/Fluent/New/transient/winter/case5-1/libudf"...
Library "/cfs/klemming/scratch/c/congwang/Fluent/New/transient/winter/case5-1/libudf/lnamd64/3ddp_node/libudf.so" opened
Opening library "/cfs/klemming/scratch/c/congwang/Fluent/New/transient/winter/case5-1/libudf"...
Library "/cfs/klemming/scratch/c/congwang/Fluent/New/transient/winter/case5-1/libudf/lnamd64/3ddp_node/libudf.so" opened
Building...
     mesh
	distributing mesh
		pairs..................................................,
		parts..................................................,
		faces..................................................,
		nodes..................................................,
		shadow nodes..................................................,
		cells..................................................,
        inter-node communication reduction using architecture-aware remapping: 14%
        bandwidth reduction using Reverse Cuthill-McKee: 189858/3649 = 52.0301
     materials,
     interface,
     domains,
	mixture
     zones,
	or_equip
	or_lamp_heat
	or_lamp_wall
	or_persons
	or_table
	cor_wall
	or_wall
	cor_outlet
	cor_inlet
	or_inlet
	interior-cor
	interior-or
	or_outlet
	sampler
	xdoor-d50
	xdoor-d50-shadow
	xdoor-d49
	xdoor-d49-shadow
	xdoor-d48
	xdoor-d48-shadow
	xdoor-d47
	xdoor-d47-shadow
	xdoor-d46
	xdoor-d46-shadow
	xdoor-d45
	xdoor-d45-shadow
	xdoor-d44
	xdoor-d44-shadow
	xdoor-d43
	xdoor-d43-shadow
	xdoor-d42
	xdoor-d42-shadow
	xdoor-d41
	xdoor-d41-shadow
	xdoor-d40
	xdoor-d40-shadow
	xdoor-d39
	xdoor-d39-shadow
	xdoor-d38
	xdoor-d38-shadow
	xdoor-d37
	xdoor-d37-shadow
	xdoor-d36
	xdoor-d36-shadow
	xdoor-d35
	xdoor-d35-shadow
	xdoor-d34
	xdoor-d34-shadow
	xdoor-d33
	xdoor-d33-shadow
	xdoor-d32
	xdoor-d32-shadow
	xdoor-d31
	xdoor-d31-shadow
	xdoor-d30
	xdoor-d30-shadow
	xdoor-d29
	xdoor-d29-shadow
	xdoor-d28
	xdoor-d28-shadow
	xdoor-d27
	xdoor-d27-shadow
	xdoor-d26
	xdoor-d26-shadow
	xdoor-d25
	xdoor-d25-shadow
	xdoor-d24
	xdoor-d24-shadow
	xdoor-d23
	xdoor-d23-shadow
	xdoor-d22
	xdoor-d22-shadow
	xdoor-d21
	xdoor-d21-shadow
	xdoor-d20
	xdoor-d20-shadow
	xdoor-d19
	xdoor-d19-shadow
	xdoor-d18
	xdoor-d18-shadow
	xdoor-d17
	xdoor-d17-shadow
	xdoor-d16
	xdoor-d16-shadow
	xdoor-d15
	xdoor-d15-shadow
	xdoor-d14
	xdoor-d14-shadow
	xdoor-d13
	xdoor-d13-shadow
	xdoor-d12
	xdoor-d12-shadow
	xdoor-d11
	xdoor-d11-shadow
	xdoor-d10
	xdoor-d10-shadow
	xdoor-d09
	xdoor-d09-shadow
	xdoor-d08
	xdoor-d08-shadow
	xdoor-d07
	xdoor-d07-shadow
	xdoor-d06
	xdoor-d06-shadow
	xdoor-d05
	xdoor-d05-shadow
	xdoor-d04
	xdoor-d04-shadow
	xdoor-d03
	xdoor-d03-shadow
	xdoor-d02
	xdoor-d02-shadow
	xdoor-d01
	cor
	or
Skipping variable seco-breakup-madabhushi-c0 for injection injection-1
Skipping variable seco-breakup-madabhushi-ligament-factor for injection injection-1
Skipping variable start-at-flow-time-in-unsteady-inj-file for injection injection-1
Skipping variable interval-to-repeat-in-unsteady-inj-file for injection injection-1
Skipping variable seco-breakup-madabhushi-c0 for injection injection-1
Skipping variable seco-breakup-madabhushi-ligament-factor for injection injection-1
Skipping variable start-at-flow-time-in-unsteady-inj-file for injection injection-1
Skipping variable interval-to-repeat-in-unsteady-inj-file for injection injection-1
Skipping variable seco-breakup-madabhushi-c0 for injection injection-1
Skipping variable seco-breakup-madabhushi-ligament-factor for injection injection-1
Skipping variable start-at-flow-time-in-unsteady-inj-file for injection injection-1
Skipping variable interval-to-repeat-in-unsteady-inj-file for injection injection-1
     parallel,
Done.

> file/read-data OR-COR-14-06700.dat.gz

Reading "\"| gunzip -c \\\"OR-COR-14-06700.dat.gz\\\"\""...




reading 1256322 particles for injection injection-1.
 
 read 1256322 particles for injection injection-1.
 locating particles on compute nodes...
all particles successfully re-located!
Parallel variables...
Done.

> ;
;
; 
;
; solve/set/under-relaxation pressure 0.7 mom 0.3 temperature 1.0  k 0.8  epsilon 0.8
;
solve/monitors/residual/convergence-criteria 1e-5 , , , , , , , invalid command [,]
, , , , , ;

> ;
;
; define/boundary-conditions/outlet-vent , , , , , , , , , , , , , , ,   5.0
;
;
;
file/auto-save/case-frequency if-case-is-modified

> file/auto-save/data-frequency 100

> file/auto-save/root-name OR-COR.gz

> ;
;
;
;
; solve/initialize/initialize-flow
; solve/initialize/hyb-initialization
; solve/initialize/fmg-initialization yes
;
;
;
;
; solve/iterate 1000
; solve/set/time-step 0.01
; solve/dual-time-iterate 500 50 , , , , 
solve/set/time-step 0.2

> solve/dual-time-iterate 3000 50 
Updating solution at time level N... done.

Advancing DPM injections ....
Injecting 1734 particle parcels with mass 2e-11 at t = 846
number tracked = 1258056, escaped = 502, aborted = 0, trapped = 716, evaporated = 0, incomplete = 0, incomplete_parallel = 0

  iter  continuity  x-velocity  y-velocity  z-velocity      energy           k     epsilon     time/iter
!216840 solution is converged
 216840  9.9106e-06  1.2894e-05  1.2351e-05  1.4128e-05  6.8211e-10  7.8052e-06  3.6713e-06  0:00:00   50
 216841  6.8733e-05  2.6584e-05  2.6555e-05  2.9176e-05  1.3672e-07  2.3716e-05  9.3878e-06  0:02:57   49
 216842  1.5461e-04  2.7780e-05  2.6809e-05  2.8800e-05  1.8003e-08  2.2041e-05  9.0181e-06  0:02:47   48
 216843  1.6547e-04  2.5395e-05  2.4899e-05  2.7974e-05  3.6870e-09  2.0538e-05  8.5359e-06  0:02:31   47
 216844  5.7649e-05  2.3847e-05  2.3308e-05  2.6354e-05  2.3897e-09  1.9189e-05  8.0259e-06  0:02:18   46
 216845  4.0067e-05  2.2625e-05  2.2198e-05  2.5050e-05  1.9514e-09  1.7974e-05  7.5343e-06  0:02:08   45
 216846  2.5937e-05  2.1713e-05  2.1253e-05  2.4027e-05  1.6569e-09  1.6875e-05  7.0796e-06  0:02:00   44
 216847  2.1324e-05  2.0863e-05  2.0384e-05  2.3061e-05  1.4515e-09  1.5876e-05  6.6672e-06  0:01:52   43
 216848  1.9000e-05  2.0072e-05  1.9569e-05  2.2167e-05  1.2910e-09  1.4964e-05  6.2962e-06  0:01:46   42
 216849  1.8223e-05  1.9326e-05  1.8806e-05  2.1305e-05  1.1744e-09  1.4128e-05  5.9635e-06  0:01:40   41
 216850  1.7352e-05  1.8624e-05  1.8088e-05  2.0516e-05  1.0798e-09  1.3359e-05  5.6648e-06  0:01:36   40

  iter  continuity  x-velocity  y-velocity  z-velocity      energy           k     epsilon     time/iter
 216851  1.6787e-05  1.7960e-05  1.7414e-05  1.9757e-05  1.0113e-09  1.2650e-05  5.3954e-06  0:01:32   39
 216852  1.5796e-05  1.7332e-05  1.6776e-05  1.9057e-05  9.5217e-10  1.1995e-05  5.1513e-06  0:01:30   38
 216853  1.5311e-05  1.6736e-05  1.6176e-05  1.8378e-05  9.0980e-10  1.1388e-05  4.9292e-06  0:01:26   37
 216854  1.4283e-05  1.6170e-05  1.5605e-05  1.7751e-05  8.7165e-10  1.0824e-05  4.7263e-06  0:01:23   36
 216855  1.3751e-05  1.5632e-05  1.5066e-05  1.7142e-05  8.4383e-10  1.0299e-05  4.5398e-06  0:01:19   35
 216856  1.2817e-05  1.5120e-05  1.4552e-05  1.6577e-05  8.1654e-10  9.8089e-06  4.3678e-06  0:01:17   34
 216857  1.2340e-05  1.4632e-05  1.4066e-05  1.6026e-05  7.9607e-10  9.3515e-06  4.2083e-06  0:01:14   33
 216858  1.1506e-05  1.4165e-05  1.3600e-05  1.5514e-05  7.7479e-10  8.9237e-06  4.0605e-06  0:01:11   32
 216859  1.1153e-05  1.3721e-05  1.3159e-05  1.5014e-05  7.5872e-10  8.5230e-06  3.9229e-06  0:01:09   31
 216860  1.0396e-05  1.3295e-05  1.2734e-05  1.4547e-05  7.4125e-10  8.1470e-06  3.7940e-06  0:01:06   30
 216861  1.0040e-05  1.2889e-05  1.2332e-05  1.4091e-05  7.2772e-10  7.7938e-06  3.6734e-06  0:01:05   29

  iter  continuity  x-velocity  y-velocity  z-velocity      energy           k     epsilon     time/iter
!216862 solution is converged
 216862  9.4013e-06  1.2498e-05  1.1945e-05  1.3665e-05  7.1291e-10  7.4617e-06  3.5605e-06  0:01:03   28
Volume Averaged Variable at (3.500000 4.460000 1.200000) is 0.000000e+00
/file/read-macros dooropen.scm

/file/read-macros doorclose.scm

  step  flow-time  volflow_or  volflow_in volflow_cor     temp_p1    temp_max pressure_or pressure_dif pressure_cor mass_balance heat_balance      dpm_p2      dpm_or     dpm_cor
  6701  8.4620e+02 -2.0817e+00  2.1019e+00 -1.3324e-01  2.9418e+02  3.6865e+02  5.2597e+00  5.0017e+00  2.5797e-01 -1.7144e-04  5.1428e+01  0.0000e+00  5.3168e-14  2.1586e-10
Flow time = 846.2s, time step = 6701
2999 more time steps

Updating solution at time level N... done.

Advancing DPM injections ....
Injecting 1734 particle parcels with mass 2e-11 at t = 846.2
number tracked = 1258572, escaped = 476, aborted = 0, trapped = 729, evaporated = 0, incomplete = 0, incomplete_parallel = 0

  iter  continuity  x-velocity  y-velocity  z-velocity      energy           k     epsilon     time/iter
!216862 solution is converged
 216862  9.4013e-06  1.2498e-05  1.1945e-05  1.3665e-05  7.1291e-10  7.4617e-06  3.5605e-06  0:01:53   50
 216863  6.9419e-05  2.6551e-05  2.6499e-05  2.9106e-05  1.3654e-07  2.3677e-05  9.3837e-06  0:01:51   49
 216864  1.5275e-04  2.7642e-05  2.6706e-05  2.8701e-05  1.8036e-08  2.2004e-05  9.0173e-06  0:01:49   48
 216865  1.5394e-04  2.5099e-05  2.4742e-05  2.7812e-05  3.7035e-09  2.0503e-05  8.5369e-06  0:01:46   47
 216866  5.8619e-05  2.3765e-05  2.3253e-05  2.6294e-05  2.4020e-09  1.9155e-05  8.0279e-06  0:01:44   46
 216867  3.6152e-05  2.2629e-05  2.2153e-05  2.4992e-05  1.9609e-09  1.7943e-05  7.5369e-06  0:01:41   45
 216868  2.4962e-05  2.1701e-05  2.1211e-05  2.3966e-05  1.6750e-09  1.6845e-05  7.0824e-06  0:01:38   44
 216869  2.0778e-05  2.0851e-05  2.0340e-05  2.3009e-05  1.4684e-09  1.5847e-05  6.6700e-06  0:01:35   43
 216870  1.9081e-05  2.0057e-05  1.9530e-05  2.2107e-05  1.3106e-09  1.4937e-05  6.2992e-06  0:01:32   42
 216871  1.8010e-05  1.9314e-05  1.8769e-05  2.1271e-05  1.1917e-09  1.4102e-05  5.9667e-06  0:01:30   41
 216872  1.7634e-05  1.8610e-05  1.8057e-05  2.0462e-05  1.0998e-09  1.3335e-05  5.6682e-06  0:01:27   40

  iter  continuity  x-velocity  y-velocity  z-velocity      energy           k     epsilon     time/iter
 216873  1.6669e-05  1.7948e-05  1.7383e-05  1.9720e-05  1.0295e-09  1.2628e-05  5.3990e-06  0:01:25   39
 216874  1.6118e-05  1.7320e-05  1.6748e-05  1.9004e-05  9.7156e-10  1.1974e-05  5.1551e-06  0:01:22   38
 216875  1.5037e-05  1.6725e-05  1.6146e-05  1.8344e-05  9.2829e-10  1.1368e-05  4.9332e-06  0:01:20   37
 216876  1.4547e-05  1.6160e-05  1.5579e-05  1.7702e-05  8.9155e-10  1.0805e-05  4.7305e-06  0:01:18   36
 216877  1.3541e-05  1.5623e-05  1.5039e-05  1.7109e-05  8.6235e-10  1.0281e-05  4.5441e-06  0:01:16   35
 216878  1.3018e-05  1.5111e-05  1.4528e-05  1.6532e-05  8.3593e-10  9.7925e-06  4.3721e-06  0:01:13   34
 216879  1.2159e-05  1.4623e-05  1.4040e-05  1.5995e-05  8.1557e-10  9.3362e-06  4.2130e-06  0:01:11   33
 216880  1.1710e-05  1.4159e-05  1.3578e-05  1.5471e-05  7.9501e-10  8.9093e-06  4.0653e-06  0:01:09   32
 216881  1.0923e-05  1.3713e-05  1.3134e-05  1.4984e-05  7.7792e-10  8.5094e-06  3.9274e-06  0:01:07   31
 216882  1.0568e-05  1.3289e-05  1.2714e-05  1.4508e-05  7.6045e-10  8.1341e-06  3.7986e-06  0:01:05   30
!216883 solution is converged
 216883  9.8657e-06  1.2882e-05  1.2310e-05  1.4063e-05  7.4763e-10  7.7818e-06  3.6782e-06  0:01:02   29
Volume Averaged Variable at (3.500000 4.460000 1.200000) is 0.000000e+00
/file/read-macros dooropen.scm

/file/read-macros doorclose.scm

  step  flow-time  volflow_or  volflow_in volflow_cor     temp_p1    temp_max pressure_or pressure_dif pressure_cor mass_balance heat_balance      dpm_p2      dpm_or     dpm_cor
  6702  8.4640e+02 -2.0817e+00  2.1019e+00 -1.3324e-01  2.9418e+02  3.6865e+02  5.2597e+00  5.0018e+00  2.5799e-01 -1.7205e-04  5.1617e+01  0.0000e+00  5.2897e-14  2.1594e-10
Flow time = 846.4s, time step = 6702
2998 more time steps

Updating solution at time level N... done.

Advancing DPM injections ....
Injecting 1734 particle parcels with mass 2e-11 at t = 846.4
number tracked = 1259101, escaped = 481, aborted = 0, trapped = 730, evaporated = 0, incomplete = 0, incomplete_parallel = 0

  iter  continuity  x-velocity  y-velocity  z-velocity      energy           k     epsilon     time/iter
!216883 solution is converged
 216883  9.8657e-06  1.2882e-05  1.2310e-05  1.4063e-05  7.4763e-10  7.7818e-06  3.6782e-06  0:01:47   50
 216884  6.8013e-05  2.6533e-05  2.6454e-05  2.9065e-05  1.3615e-07  2.3628e-05  9.3718e-06  0:01:46   49
 216885  1.5159e-04  2.7605e-05  2.6677e-05  2.8647e-05  1.7944e-08  2.1959e-05  9.0040e-06  0:01:45   48
 216886  1.5399e-04  2.5089e-05  2.4708e-05  2.7749e-05  3.6514e-09  2.0461e-05  8.5238e-06  0:01:42   47
 216887  5.7636e-05  2.3755e-05  2.3213e-05  2.6230e-05  2.3737e-09  1.9117e-05  8.0165e-06  0:01:41   46
 216888  3.5319e-05  2.2610e-05  2.2116e-05  2.4946e-05  1.9288e-09  1.7908e-05  7.5275e-06  0:01:38   45
 216889  2.4281e-05  2.1687e-05  2.1176e-05  2.3921e-05  1.6458e-09  1.6813e-05  7.0748e-06  0:01:36   44
 216890  2.1323e-05  2.0834e-05  2.0306e-05  2.2962e-05  1.4361e-09  1.5818e-05  6.6641e-06  0:01:33   43
 216891  1.9343e-05  2.0045e-05  1.9496e-05  2.2070e-05  1.2783e-09  1.4909e-05  6.2949e-06  0:01:31   42
 216892  1.8467e-05  1.9300e-05  1.8739e-05  2.1214e-05  1.1586e-09  1.4077e-05  5.9639e-06  0:01:29   41
 216893  1.7356e-05  1.8600e-05  1.8025e-05  2.0429e-05  1.0682e-09  1.3312e-05  5.6663e-06  0:01:27   40

  iter  continuity  x-velocity  y-velocity  z-velocity      energy           k     epsilon     time/iter
 216894  1.6833e-05  1.7937e-05  1.7355e-05  1.9670e-05  9.9693e-10  1.2606e-05  5.3979e-06  0:01:24   39
 216895  1.5831e-05  1.7311e-05  1.6720e-05  1.8972e-05  9.4227e-10  1.1954e-05  5.1549e-06  0:01:22   38
 216896  1.5305e-05  1.6716e-05  1.6122e-05  1.8296e-05  8.9740e-10  1.1349e-05  4.9337e-06  0:01:20   37
 216897  1.4265e-05  1.6152e-05  1.5553e-05  1.7672e-05  8.6225e-10  1.0788e-05  4.7314e-06  0:01:18   36
 216898  1.3725e-05  1.5615e-05  1.5016e-05  1.7066e-05  8.3187e-10  1.0265e-05  4.5456e-06  0:01:15   35
 216899  1.2811e-05  1.5104e-05  1.4503e-05  1.6502e-05  8.0789e-10  9.7773e-06  4.3741e-06  0:01:13   34
 216900  1.2326e-05  1.4617e-05  1.4019e-05  1.5954e-05  7.8338e-10  9.3220e-06  4.2154e-06  0:01:11   33
 216901  1.1498e-05  1.4152e-05  1.3554e-05  1.5444e-05  7.6460e-10  8.8961e-06  4.0680e-06  0:01:09   32
 216902  1.1105e-05  1.3708e-05  1.3115e-05  1.4946e-05  7.4557e-10  8.4971e-06  3.9303e-06  0:01:06   31
 216903  1.0369e-05  1.3283e-05  1.2692e-05  1.4482e-05  7.3153e-10  8.1229e-06  3.8020e-06  0:01:04   30
 216904  1.0029e-05  1.2877e-05  1.2292e-05  1.4028e-05  7.1623e-10  7.7714e-06  3.6818e-06  0:01:02   29

  iter  continuity  x-velocity  y-velocity  z-velocity      energy           k     epsilon     time/iter
!216905 solution is converged
 216905  9.3598e-06  1.2487e-05  1.1906e-05  1.3603e-05  7.0439e-10  7.4408e-06  3.5690e-06  0:01:00   28
Volume Averaged Variable at (3.500000 4.460000 1.200000) is 0.000000e+00
/file/read-macros dooropen.scm

/file/read-macros doorclose.scm

  step  flow-time  volflow_or  volflow_in volflow_cor     temp_p1    temp_max pressure_or pressure_dif pressure_cor mass_balance heat_balance      dpm_p2      dpm_or     dpm_cor
  6703  8.4660e+02 -2.0817e+00  2.1019e+00 -1.3324e-01  2.9418e+02  3.6865e+02  5.2598e+00  5.0018e+00  2.5800e-01 -1.7265e-04  5.1799e+01  0.0000e+00  5.2695e-14  2.1604e-10
Flow time = 846.6s, time step = 6703
2997 more time steps

Updating solution at time level N... done.

Advancing DPM injections ....
Injecting 1734 particle parcels with mass 2e-11 at t = 846.6
number tracked = 1259624, escaped = 482, aborted = 0, trapped = 734, evaporated = 0, incomplete = 0, incomplete_parallel = 0

  iter  continuity  x-velocity  y-velocity  z-velocity      energy           k     epsilon     time/iter
!216905 solution is converged
 216905  9.3598e-06  1.2487e-05  1.1906e-05  1.3603e-05  7.0439e-10  7.4408e-06  3.5690e-06  0:01:47   50
 216906  6.9328e-05  2.6505e-05  2.6405e-05  2.8994e-05  1.3585e-07  2.3590e-05  9.3699e-06  0:01:46   49
 216907  1.5196e-04  2.7567e-05  2.6651e-05  2.8596e-05  1.7910e-08  2.1923e-05  9.0048e-06  0:01:44   48
 216908  1.5166e-04  2.5016e-05  2.4660e-05  2.7682e-05  3.6533e-09  2.0428e-05  8.5268e-06  0:01:42   47
 216909  5.8285e-05  2.3713e-05  2.3182e-05  2.6180e-05  2.3781e-09  1.9086e-05  8.0203e-06  0:01:40   46
 216910  3.5094e-05  2.2604e-05  2.2076e-05  2.4892e-05  1.9361e-09  1.7878e-05  7.5315e-06  0:01:37   45
 216911  2.5319e-05  2.1674e-05  2.1135e-05  2.3865e-05  1.6539e-09  1.6785e-05  7.0791e-06  0:01:35   44
 216912  2.0658e-05  2.0825e-05  2.0268e-05  2.2913e-05  1.4415e-09  1.5791e-05  6.6687e-06  0:01:33   43
 216913  1.9124e-05  2.0031e-05  1.9461e-05  2.2013e-05  1.2875e-09  1.4884e-05  6.2998e-06  0:01:31   42
 216914  1.8183e-05  1.9289e-05  1.8704e-05  2.1177e-05  1.1666e-09  1.4053e-05  5.9686e-06  0:01:29   41
 216915  1.7720e-05  1.8586e-05  1.7994e-05  2.0372e-05  1.0795e-09  1.3289e-05  5.6711e-06  0:01:26   40

  iter  continuity  x-velocity  y-velocity  z-velocity      energy           k     epsilon     time/iter
 216916  1.6587e-05  1.7925e-05  1.7323e-05  1.9635e-05  1.0056e-09  1.2585e-05  5.4028e-06  0:01:24   39
 216917  1.6069e-05  1.7298e-05  1.6691e-05  1.8920e-05  9.5248e-10  1.1934e-05  5.1599e-06  0:01:22   38
 216918  1.5025e-05  1.6705e-05  1.6092e-05  1.8262e-05  9.0733e-10  1.1330e-05  4.9388e-06  0:01:20   37
 216919  1.4478e-05  1.6141e-05  1.5526e-05  1.7623e-05  8.7480e-10  1.0770e-05  4.7364e-06  0:01:17   36
 216920  1.3465e-05  1.5605e-05  1.4987e-05  1.7033e-05  8.4292e-10  1.0248e-05  4.5507e-06  0:01:15   35
 216921  1.3022e-05  1.5095e-05  1.4479e-05  1.6456e-05  8.1961e-10  9.7615e-06  4.3793e-06  0:01:13   34
 216922  1.2115e-05  1.4608e-05  1.3992e-05  1.5922e-05  7.9589e-10  9.3072e-06  4.2207e-06  0:01:11   33
 216923  1.1665e-05  1.4143e-05  1.3532e-05  1.5401e-05  7.7883e-10  8.8821e-06  4.0733e-06  0:01:09   32
 216924  1.0901e-05  1.3699e-05  1.3090e-05  1.4916e-05  7.5947e-10  8.4841e-06  3.9359e-06  0:01:07   31
 216925  1.0525e-05  1.3276e-05  1.2671e-05  1.4442e-05  7.4509e-10  8.1105e-06  3.8077e-06  0:01:04   30
!216926 solution is converged
 216926  9.8424e-06  1.2869e-05  1.2268e-05  1.3999e-05  7.2985e-10  7.7597e-06  3.6875e-06  0:01:02   29
Volume Averaged Variable at (3.500000 4.460000 1.200000) is 0.000000e+00
/file/read-macros dooropen.scm

/file/read-macros doorclose.scm

  step  flow-time  volflow_or  volflow_in volflow_cor     temp_p1    temp_max pressure_or pressure_dif pressure_cor mass_balance heat_balance      dpm_p2      dpm_or     dpm_cor
  6704  8.4680e+02 -2.0817e+00  2.1019e+00 -1.3324e-01  2.9418e+02  3.6865e+02  5.2598e+00  5.0018e+00  2.5802e-01 -1.7316e-04  5.1975e+01  0.0000e+00  5.2641e-14  2.1613e-10
Flow time = 846.8s, time step = 6704
2996 more time steps

Updating solution at time level N... done.

Advancing DPM injections ....
Injecting 1734 particle parcels with mass 2e-11 at t = 846.8
number tracked = 1260142, escaped = 511, aborted = 0, trapped = 759, evaporated = 0, incomplete = 0, incomplete_parallel = 0

  iter  continuity  x-velocity  y-velocity  z-velocity      energy           k     epsilon     time/iter
!216926 solution is converged
 216926  9.8424e-06  1.2869e-05  1.2268e-05  1.3999e-05  7.2985e-10  7.7597e-06  3.6875e-06  0:01:48   50
 216927  6.7945e-05  2.6487e-05  2.6359e-05  2.8955e-05  1.3546e-07  2.3542e-05  9.3592e-06  0:01:46   49
 216928  1.5158e-04  2.7584e-05  2.6618e-05  2.8534e-05  1.7851e-08  2.1880e-05  8.9928e-06  0:01:45   48
 216929  1.5433e-04  2.5074e-05  2.4629e-05  2.7635e-05  3.6877e-09  2.0388e-05  8.5150e-06  0:01:42   47
 216930  5.7646e-05  2.3726e-05  2.3132e-05  2.6118e-05  2.4082e-09  1.9049e-05  8.0099e-06  0:01:40   46
 216931  3.4977e-05  2.2575e-05  2.2036e-05  2.4839e-05  1.9747e-09  1.7844e-05  7.5231e-06  0:01:38   45
 216932  2.4591e-05  2.1654e-05  2.1100e-05  2.3820e-05  1.6927e-09  1.6753e-05  7.0726e-06  0:01:35   44
 216933  2.0875e-05  2.0811e-05  2.0236e-05  2.2871e-05  1.4882e-09  1.5762e-05  6.6642e-06  0:01:33   43
 216934  1.9810e-05  2.0016e-05  1.9429e-05  2.1966e-05  1.3348e-09  1.4857e-05  6.2967e-06  0:01:32   42
 216935  1.8144e-05  1.9277e-05  1.8673e-05  2.1134e-05  1.2181e-09  1.4028e-05  5.9669e-06  0:01:30   41
 216936  1.7582e-05  1.8576e-05  1.7964e-05  2.0330e-05  1.1266e-09  1.3266e-05  5.6705e-06  0:01:27   40

  iter  continuity  x-velocity  y-velocity  z-velocity      energy           k     epsilon     time/iter
 216937  1.6583e-05  1.7916e-05  1.7294e-05  1.9593e-05  1.0564e-09  1.2564e-05  5.4032e-06  0:01:25   39
 216938  1.6015e-05  1.7290e-05  1.6664e-05  1.8881e-05  1.0000e-09  1.1914e-05  5.1610e-06  0:01:22   38
 216939  1.5020e-05  1.6697e-05  1.6065e-05  1.8223e-05  9.5757e-10  1.1312e-05  4.9407e-06  0:01:20   37
 216940  1.4467e-05  1.6133e-05  1.5501e-05  1.7586e-05  9.1995e-10  1.0752e-05  4.7390e-06  0:01:18   36
 216941  1.3457e-05  1.5598e-05  1.4963e-05  1.6997e-05  8.9230e-10  1.0232e-05  4.5538e-06  0:01:15   35
 216942  1.3011e-05  1.5088e-05  1.4455e-05  1.6422e-05  8.6574e-10  9.7465e-06  4.3830e-06  0:01:13   34
 216943  1.2101e-05  1.4602e-05  1.3969e-05  1.5888e-05  8.4636e-10  9.2933e-06  4.2246e-06  0:01:11   33
 216944  1.1662e-05  1.4138e-05  1.3510e-05  1.5369e-05  8.2613e-10  8.8692e-06  4.0776e-06  0:01:09   32
 216945  1.0894e-05  1.3694e-05  1.3069e-05  1.4884e-05  8.1016e-10  8.4719e-06  3.9405e-06  0:01:07   31
 216946  1.0527e-05  1.3271e-05  1.2651e-05  1.4411e-05  7.9390e-10  8.0992e-06  3.8124e-06  0:01:04   30
!216947 solution is converged
 216947  9.8297e-06  1.2864e-05  1.2249e-05  1.3969e-05  7.8104e-10  7.7492e-06  3.6925e-06  0:01:02   29
Volume Averaged Variable at (3.500000 4.460000 1.200000) is 0.000000e+00
/file/read-macros dooropen.scm

/file/read-macros doorclose.scm

  step  flow-time  volflow_or  volflow_in volflow_cor     temp_p1    temp_max pressure_or pressure_dif pressure_cor mass_balance heat_balance      dpm_p2      dpm_or     dpm_cor
  6705  8.4700e+02 -2.0817e+00  2.1019e+00 -1.3324e-01  2.9418e+02  3.6865e+02  5.2599e+00  5.0018e+00  2.5803e-01 -1.7374e-04  5.2142e+01  0.0000e+00  5.2629e-14  2.1621e-10
Flow time = 847s, time step = 6705
2995 more time steps

Updating solution at time level N... done.

Advancing DPM injections ....
Injecting 1734 particle parcels with mass 2e-11 at t = 847
number tracked = 1260606, escaped = 466, aborted = 0, trapped = 693, evaporated = 0, incomplete = 0, incomplete_parallel = 0

  iter  continuity  x-velocity  y-velocity  z-velocity      energy           k     epsilon     time/iter
!216947 solution is converged
 216947  9.8297e-06  1.2864e-05  1.2249e-05  1.3969e-05  7.8104e-10  7.7492e-06  3.6925e-06  0:01:47   50
 216948  6.7856e-05  2.6465e-05  2.6313e-05  2.8906e-05  1.3512e-07  2.3495e-05  9.3477e-06  0:01:46   49
 216949  1.5175e-04  2.7576e-05  2.6594e-05  2.8484e-05  1.7811e-08  2.1837e-05  8.9817e-06  0:01:45   48
 216950  1.5367e-04  2.5040e-05  2.4595e-05  2.7585e-05  3.6525e-09  2.0348e-05  8.5058e-06  0:01:42   47
 216951  5.8354e-05  2.3714e-05  2.3103e-05  2.6076e-05  2.3878e-09  1.9012e-05  8.0025e-06  0:01:40   46
 216952  3.5823e-05  2.2571e-05  2.1995e-05  2.4783e-05  1.9470e-09  1.7810e-05  7.5173e-06  0:01:39   45
 216953  2.5102e-05  2.1639e-05  2.1060e-05  2.3770e-05  1.6672e-09  1.6722e-05  7.0685e-06  0:01:36   44
 216954  2.0341e-05  2.0800e-05  2.0197e-05  2.2827e-05  1.4559e-09  1.5733e-05  6.6613e-06  0:01:34   43
 216955  1.9103e-05  2.0007e-05  1.9395e-05  2.1923e-05  1.3035e-09  1.4830e-05  6.2950e-06  0:01:31   42
 216956  1.8274e-05  1.9263e-05  1.8641e-05  2.1080e-05  1.1849e-09  1.4003e-05  5.9663e-06  0:01:29   41
 216957  1.7176e-05  1.8567e-05  1.7931e-05  2.0300e-05  1.0963e-09  1.3242e-05  5.6705e-06  0:01:27   40

  iter  continuity  x-velocity  y-velocity  z-velocity      energy           k     epsilon     time/iter
 216958  1.6791e-05  1.7906e-05  1.7266e-05  1.9545e-05  1.0259e-09  1.2541e-05  5.4040e-06  0:01:24   39
 216959  1.5774e-05  1.7282e-05  1.6634e-05  1.8850e-05  9.7149e-10  1.1893e-05  5.1627e-06  0:01:22   38
 216960  1.5246e-05  1.6688e-05  1.6039e-05  1.8178e-05  9.2741e-10  1.1293e-05  4.9428e-06  0:01:20   37
 216961  1.4190e-05  1.6126e-05  1.5473e-05  1.7557e-05  8.9461e-10  1.0735e-05  4.7417e-06  0:01:18   36
 216962  1.3672e-05  1.5590e-05  1.4939e-05  1.6954e-05  8.6491e-10  1.0215e-05  4.5569e-06  0:01:15   35
 216963  1.2746e-05  1.5081e-05  1.4429e-05  1.6394e-05  8.4107e-10  9.7310e-06  4.3863e-06  0:01:14   34
 216964  1.2283e-05  1.4595e-05  1.3948e-05  1.5849e-05  8.1716e-10  9.2787e-06  4.2284e-06  0:01:12   33
 216965  1.1440e-05  1.4131e-05  1.3486e-05  1.5341e-05  7.9899e-10  8.8556e-06  4.0814e-06  0:01:10   32
 216966  1.1059e-05  1.3688e-05  1.3049e-05  1.4846e-05  7.8007e-10  8.4592e-06  3.9446e-06  0:01:07   31
 216967  1.0321e-05  1.3264e-05  1.2628e-05  1.4385e-05  7.6615e-10  8.0874e-06  3.8168e-06  0:01:05   30
!216968 solution is converged
 216968  9.9704e-06  1.2860e-05  1.2230e-05  1.3934e-05  7.5066e-10  7.7381e-06  3.6972e-06  0:01:03   29
Volume Averaged Variable at (3.500000 4.460000 1.200000) is 0.000000e+00
/file/read-macros dooropen.scm

/file/read-macros doorclose.scm

  step  flow-time  volflow_or  volflow_in volflow_cor     temp_p1    temp_max pressure_or pressure_dif pressure_cor mass_balance heat_balance      dpm_p2      dpm_or     dpm_cor
  6706  8.4720e+02 -2.0817e+00  2.1019e+00 -1.3324e-01  2.9418e+02  3.6865e+02  5.2599e+00  5.0019e+00  2.5805e-01 -1.7434e-04  5.2302e+01  0.0000e+00  5.2530e-14  2.1631e-10
Flow time = 847.2s, time step = 6706
2994 more time steps

Updating solution at time level N... done.

Advancing DPM injections ....
Injecting 1734 particle parcels with mass 2e-11 at t = 847.2
number tracked = 1261181, escaped = 504, aborted = 0, trapped = 761, evaporated = 0, incomplete = 0, incomplete_parallel = 0

  iter  continuity  x-velocity  y-velocity  z-velocity      energy           k     epsilon     time/iter
!216968 solution is converged
 216968  9.9704e-06  1.2860e-05  1.2230e-05  1.3934e-05  7.5066e-10  7.7381e-06  3.6972e-06  0:01:48   50
 216969  6.7634e-05  2.6444e-05  2.6264e-05  2.8862e-05  1.3469e-07  2.3449e-05  9.3378e-06  0:01:47   49
 216970  1.5117e-04  2.7537e-05  2.6558e-05  2.8429e-05  1.7756e-08  2.1794e-05  8.9728e-06  0:01:46   48
 216971  1.5321e-04  2.5031e-05  2.4545e-05  2.7522e-05  3.6761e-09  2.0308e-05  8.4984e-06  0:01:43   47
 216972  5.8328e-05  2.3713e-05  2.3064e-05  2.6017e-05  2.4124e-09  1.8975e-05  7.9968e-06  0:01:41   46
 216973  3.5749e-05  2.2548e-05  2.1961e-05  2.4739e-05  1.9813e-09  1.7775e-05  7.5132e-06  0:01:38   45
 216974  2.4558e-05  2.1625e-05  2.1026e-05  2.3725e-05  1.7034e-09  1.6690e-05  7.0659e-06  0:01:36   44
 216975  2.0661e-05  2.0780e-05  2.0163e-05  2.2775e-05  1.5015e-09  1.5703e-05  6.6601e-06  0:01:35   43
 216976  1.9017e-05  1.9993e-05  1.9360e-05  2.1880e-05  1.3516e-09  1.4803e-05  6.2950e-06  0:01:34   42
 216977  1.7878e-05  1.9256e-05  1.8607e-05  2.1050e-05  1.2370e-09  1.3977e-05  5.9672e-06  0:01:31   41
 216978  1.7504e-05  1.8556e-05  1.7902e-05  2.0248e-05  1.1476e-09  1.3219e-05  5.6726e-06  0:01:28   40

  iter  continuity  x-velocity  y-velocity  z-velocity      energy           k     epsilon     time/iter
 216979  1.6566e-05  1.7897e-05  1.7234e-05  1.9512e-05  1.0790e-09  1.2519e-05  5.4067e-06  0:01:25   39
 216980  1.6023e-05  1.7272e-05  1.6606e-05  1.8802e-05  1.0232e-09  1.1873e-05  5.1661e-06  0:01:23   38
 216981  1.4952e-05  1.6681e-05  1.6009e-05  1.8148e-05  9.7976e-10  1.1273e-05  4.9465e-06  0:01:20   37
 216982  1.4462e-05  1.6118e-05  1.5448e-05  1.7513e-05  9.4221e-10  1.0717e-05  4.7456e-06  0:01:18   36
 216983  1.3428e-05  1.5583e-05  1.4912e-05  1.6925e-05  9.1386e-10  1.0198e-05  4.5612e-06  0:01:16   35
 216984  1.2978e-05  1.5074e-05  1.4407e-05  1.6352e-05  8.8812e-10  9.7152e-06  4.3908e-06  0:01:13   34
 216985  1.2069e-05  1.4589e-05  1.3923e-05  1.5821e-05  8.6914e-10  9.2639e-06  4.2330e-06  0:01:11   33
 216986  1.1644e-05  1.4126e-05  1.3465e-05  1.5303e-05  8.4970e-10  8.8419e-06  4.0865e-06  0:01:09   32
 216987  1.0863e-05  1.3683e-05  1.3025e-05  1.4820e-05  8.3499e-10  8.4465e-06  3.9500e-06  0:01:07   31
 216988  1.0506e-05  1.3260e-05  1.2609e-05  1.4349e-05  8.1857e-10  8.0755e-06  3.8224e-06  0:01:05   30
!216989 solution is converged
 216989  9.8134e-06  1.2855e-05  1.2208e-05  1.3909e-05  8.0573e-10  7.7270e-06  3.7025e-06  0:01:02   29
Volume Averaged Variable at (3.500000 4.460000 1.200000) is 0.000000e+00
/file/read-macros dooropen.scm

/file/read-macros doorclose.scm

  step  flow-time  volflow_or  volflow_in volflow_cor     temp_p1    temp_max pressure_or pressure_dif pressure_cor mass_balance heat_balance      dpm_p2      dpm_or     dpm_cor
  6707  8.4740e+02 -2.0817e+00  2.1019e+00 -1.3324e-01  2.9418e+02  3.6865e+02  5.2599e+00  5.0019e+00  2.5806e-01 -1.7477e-04  5.2450e+01  0.0000e+00  5.2440e-14  2.1639e-10
Flow time = 847.4s, time step = 6707
2993 more time steps

Updating solution at time level N... done.

Advancing DPM injections ....
Injecting 1734 particle parcels with mass 2e-11 at t = 847.4
number tracked = 1261650, escaped = 502, aborted = 0, trapped = 716, evaporated = 0, incomplete = 0, incomplete_parallel = 0

  iter  continuity  x-velocity  y-velocity  z-velocity      energy           k     epsilon     time/iter
!216989 solution is converged
 216989  9.8134e-06  1.2855e-05  1.2208e-05  1.3909e-05  8.0573e-10  7.7270e-06  3.7025e-06  0:01:48   50
 216990  6.7690e-05  2.6424e-05  2.6217e-05  2.8809e-05  1.3433e-07  2.3403e-05  9.3295e-06  0:01:46   49
 216991  1.4920e-04  2.7414e-05  2.6466e-05  2.8360e-05  1.7696e-08  2.1752e-05  8.9654e-06  0:01:44   48
 216992  1.4880e-04  2.4928e-05  2.4478e-05  2.7446e-05  3.6326e-09  2.0269e-05  8.4922e-06  0:01:42   47
 216993  5.7746e-05  2.3663e-05  2.3028e-05  2.5970e-05  2.3847e-09  1.8939e-05  7.9921e-06  0:01:40   46
 216994  3.4024e-05  2.2553e-05  2.1917e-05  2.4698e-05  1.9506e-09  1.7741e-05  7.5100e-06  0:01:38   45
 216995  2.6199e-05  2.1618e-05  2.0983e-05  2.3679e-05  1.6741e-09  1.6658e-05  7.0638e-06  0:01:35   44
 216996  2.0678e-05  2.0777e-05  2.0126e-05  2.2733e-05  1.4666e-09  1.5673e-05  6.6588e-06  0:01:33   43
 216997  1.9320e-05  1.9983e-05  1.9328e-05  2.1838e-05  1.3155e-09  1.4775e-05  6.2946e-06  0:01:31   42
 216998  1.8067e-05  1.9245e-05  1.8576e-05  2.1008e-05  1.1974e-09  1.3951e-05  5.9678e-06  0:01:28   41
 216999  1.7546e-05  1.8545e-05  1.7870e-05  2.0209e-05  1.1111e-09  1.3194e-05  5.6739e-06  0:01:26   40

  iter  continuity  x-velocity  y-velocity  z-velocity      energy           k     epsilon     time/iter
 217000  1.6572e-05  1.7888e-05  1.7204e-05  1.9474e-05  1.0395e-09  1.2497e-05  5.4088e-06  0:01:24   39
 217001  1.6050e-05  1.7263e-05  1.6578e-05  1.8764e-05  9.8720e-10  1.1851e-05  5.1685e-06  0:01:22   38
 217002  1.4964e-05  1.6672e-05  1.5982e-05  1.8111e-05  9.4328e-10  1.1253e-05  4.9496e-06  0:01:19   37
 217003  1.4398e-05  1.6110e-05  1.5422e-05  1.7477e-05  9.1220e-10  1.0698e-05  4.7496e-06  0:01:17   36
 217004  1.3430e-05  1.5576e-05  1.4887e-05  1.6890e-05  8.8247e-10  1.0181e-05  4.5657e-06  0:01:15   35
 217005  1.2924e-05  1.5067e-05  1.4382e-05  1.6319e-05  8.5956e-10  9.6993e-06  4.3958e-06  0:01:13   34
 217006  1.2030e-05  1.4582e-05  1.3899e-05  1.5789e-05  8.3608e-10  9.2492e-06  4.2384e-06  0:01:11   33
 217007  1.1657e-05  1.4120e-05  1.3442e-05  1.5271e-05  8.1826e-10  8.8280e-06  4.0921e-06  0:01:09   32
 217008  1.0853e-05  1.3677e-05  1.3003e-05  1.4789e-05  7.9974e-10  8.4335e-06  3.9558e-06  0:01:07   31
 217009  1.0469e-05  1.3255e-05  1.2587e-05  1.4319e-05  7.8546e-10  8.0634e-06  3.8283e-06  0:01:05   30
!217010 solution is converged
 217010  9.7926e-06  1.2849e-05  1.2187e-05  1.3879e-05  7.7017e-10  7.7159e-06  3.7091e-06  0:01:03   29
Volume Averaged Variable at (3.500000 4.460000 1.200000) is 0.000000e+00
/file/read-macros dooropen.scm

/file/read-macros doorclose.scm

  step  flow-time  volflow_or  volflow_in volflow_cor     temp_p1    temp_max pressure_or pressure_dif pressure_cor mass_balance heat_balance      dpm_p2      dpm_or     dpm_cor
  6708  8.4760e+02 -2.0817e+00  2.1019e+00 -1.3324e-01  2.9418e+02  3.6865e+02  5.2600e+00  5.0019e+00  2.5807e-01 -1.7523e-04  5.2589e+01  0.0000e+00  5.2308e-14  2.1647e-10
Flow time = 847.6s, time step = 6708
2992 more time steps

Updating solution at time level N... done.

Advancing DPM injections ....
Injecting 1734 particle parcels with mass 2e-11 at t = 847.6
number tracked = 1262166, escaped = 512, aborted = 0, trapped = 731, evaporated = 0, incomplete = 0, incomplete_parallel = 0

  iter  continuity  x-velocity  y-velocity  z-velocity      energy           k     epsilon     time/iter
!217010 solution is converged
 217010  9.7926e-06  1.2849e-05  1.2187e-05  1.3879e-05  7.7017e-10  7.7159e-06  3.7091e-06  0:01:48   50
 217011  6.7587e-05  2.6403e-05  2.6169e-05  2.8763e-05  1.3390e-07  2.3357e-05  9.3236e-06  0:01:48   49
 217012  1.4861e-04  2.7378e-05  2.6430e-05  2.8320e-05  1.7621e-08  2.1710e-05  8.9602e-06  0:01:46   48
 217013  1.4971e-04  2.4963e-05  2.4489e-05  2.7401e-05  3.6491e-09  2.0230e-05  8.4877e-06  0:01:46   47
 217014  5.6803e-05  2.3656e-05  2.2991e-05  2.5922e-05  2.4028e-09  1.8902e-05  7.9890e-06  0:01:44   46
 217015  3.4668e-05  2.2519e-05  2.1877e-05  2.4653e-05  1.9801e-09  1.7708e-05  7.5082e-06  0:01:41   45
 217016  2.5727e-05  2.1599e-05  2.0947e-05  2.3633e-05  1.7060e-09  1.6627e-05  7.0636e-06  0:01:38   44
 217017  2.0565e-05  2.0759e-05  2.0091e-05  2.2688e-05  1.5066e-09  1.5645e-05  6.6599e-06  0:01:35   43
 217018  1.8964e-05  1.9971e-05  1.9294e-05  2.1795e-05  1.3579e-09  1.4748e-05  6.2967e-06  0:01:33   42
 217019  1.7934e-05  1.9231e-05  1.8544e-05  2.0958e-05  1.2462e-09  1.3926e-05  5.9703e-06  0:01:30   41
 217020  1.7182e-05  1.8536e-05  1.7838e-05  2.0179e-05  1.1581e-09  1.3171e-05  5.6769e-06  0:01:27   40

  iter  continuity  x-velocity  y-velocity  z-velocity      energy           k     epsilon     time/iter
 217021  1.6750e-05  1.7876e-05  1.7175e-05  1.9427e-05  1.0912e-09  1.2475e-05  5.4124e-06  0:01:25   39
 217022  1.5743e-05  1.7254e-05  1.6547e-05  1.8735e-05  1.0347e-09  1.1831e-05  5.1726e-06  0:01:23   38
 217023  1.5172e-05  1.6662e-05  1.5955e-05  1.8067e-05  9.9323e-10  1.1235e-05  4.9541e-06  0:01:20   37
 217024  1.4121e-05  1.6102e-05  1.5393e-05  1.7449e-05  9.5682e-10  1.0681e-05  4.7543e-06  0:01:18   36
 217025  1.3661e-05  1.5568e-05  1.4862e-05  1.6848e-05  9.2937e-10  1.0165e-05  4.5708e-06  0:01:16   35
 217026  1.2697e-05  1.5060e-05  1.4355e-05  1.6292e-05  9.0317e-10  9.6843e-06  4.4010e-06  0:01:14   34
 217027  1.2233e-05  1.4575e-05  1.3876e-05  1.5750e-05  8.8429e-10  9.2352e-06  4.2438e-06  0:01:12   33
 217028  1.1397e-05  1.4113e-05  1.3417e-05  1.5245e-05  8.6500e-10  8.8151e-06  4.0977e-06  0:01:10   32
 217029  1.1012e-05  1.3671e-05  1.2983e-05  1.4753e-05  8.5043e-10  8.4214e-06  3.9615e-06  0:01:07   31
 217030  1.0250e-05  1.3249e-05  1.2564e-05  1.4294e-05  8.3514e-10  8.0522e-06  3.8342e-06  0:01:05   30
!217031 solution is converged
 217031  9.9737e-06  1.2845e-05  1.2169e-05  1.3846e-05  8.2249e-10  7.7054e-06  3.7150e-06  0:01:03   29
Volume Averaged Variable at (3.500000 4.460000 1.200000) is 0.000000e+00
/file/read-macros dooropen.scm

/file/read-macros doorclose.scm

  step  flow-time  volflow_or  volflow_in volflow_cor     temp_p1    temp_max pressure_or pressure_dif pressure_cor mass_balance heat_balance      dpm_p2      dpm_or     dpm_cor
  6709  8.4780e+02 -2.0817e+00  2.1019e+00 -1.3324e-01  2.9418e+02  3.6865e+02  5.2600e+00  5.0019e+00  2.5809e-01 -1.7569e-04  5.2717e+01  0.0000e+00  5.2168e-14  2.1656e-10
Flow time = 847.8s, time step = 6709
2991 more time steps

Updating solution at time level N... done.

Advancing DPM injections ....
Injecting 1734 particle parcels with mass 2e-11 at t = 847.8
number tracked = 1262657, escaped = 468, aborted = 0, trapped = 699, evaporated = 0, incomplete = 0, incomplete_parallel = 0

  iter  continuity  x-velocity  y-velocity  z-velocity      energy           k     epsilon     time/iter
!217031 solution is converged
 217031  9.9737e-06  1.2845e-05  1.2169e-05  1.3846e-05  8.2249e-10  7.7054e-06  3.7150e-06  0:01:48   50
 217032  6.7369e-05  2.6382e-05  2.6119e-05  2.8721e-05  1.3353e-07  2.3313e-05  9.3177e-06  0:01:47   49
 217033  1.4840e-04  2.7341e-05  2.6383e-05  2.8254e-05  1.7576e-08  2.1669e-05  8.9551e-06  0:01:45   48
 217034  1.4977e-04  2.4925e-05  2.4420e-05  2.7338e-05  3.6029e-09  2.0192e-05  8.4841e-06  0:01:43   47
 217035  5.7062e-05  2.3637e-05  2.2953e-05  2.5862e-05  2.3704e-09  1.8867e-05  7.9867e-06  0:01:40   46
 217036  3.5215e-05  2.2517e-05  2.1841e-05  2.4606e-05  1.9435e-09  1.7675e-05  7.5073e-06  0:01:38   45
 217037  2.4561e-05  2.1586e-05  2.0909e-05  2.3595e-05  1.6717e-09  1.6597e-05  7.0637e-06  0:01:36   44
 217038  2.0738e-05  2.0745e-05  2.0054e-05  2.2648e-05  1.4700e-09  1.5616e-05  6.6613e-06  0:01:33   43
 217039  1.9160e-05  1.9957e-05  1.9259e-05  2.1755e-05  1.3206e-09  1.4722e-05  6.2989e-06  0:01:31   42
 217040  1.7938e-05  1.9219e-05  1.8510e-05  2.0919e-05  1.2050e-09  1.3902e-05  5.9738e-06  0:01:29   41
 217041  1.7219e-05  1.8525e-05  1.7806e-05  2.0139e-05  1.1193e-09  1.3149e-05  5.6812e-06  0:01:26   40

  iter  continuity  x-velocity  y-velocity  z-velocity      energy           k     epsilon     time/iter
 217042  1.6776e-05  1.7866e-05  1.7145e-05  1.9387e-05  1.0506e-09  1.2454e-05  5.4172e-06  0:01:24   39
 217043  1.5674e-05  1.7245e-05  1.6518e-05  1.8698e-05  9.9838e-10  1.1812e-05  5.1779e-06  0:01:24   38
 217044  1.5161e-05  1.6654e-05  1.5927e-05  1.8030e-05  9.5405e-10  1.1216e-05  4.9599e-06  0:01:21   37
 217045  1.4115e-05  1.6094e-05  1.5365e-05  1.7413e-05  9.2248e-10  1.0664e-05  4.7606e-06  0:01:19   36
 217046  1.3598e-05  1.5560e-05  1.4836e-05  1.6814e-05  8.9395e-10  1.0149e-05  4.5772e-06  0:01:16   35
 217047  1.2664e-05  1.5054e-05  1.4330e-05  1.6259e-05  8.7109e-10  9.6693e-06  4.4077e-06  0:01:14   34
 217048  1.2209e-05  1.4569e-05  1.3852e-05  1.5718e-05  8.4807e-10  9.2212e-06  4.2508e-06  0:01:11   33
 217049  1.1368e-05  1.4107e-05  1.3394e-05  1.5214e-05  8.3022e-10  8.8021e-06  4.1051e-06  0:01:09   32
 217050  1.1000e-05  1.3666e-05  1.2960e-05  1.4723e-05  8.1272e-10  8.4095e-06  3.9692e-06  0:01:07   31
 217051  1.0260e-05  1.3244e-05  1.2543e-05  1.4264e-05  7.9860e-10  8.0412e-06  3.8422e-06  0:01:05   30
!217052 solution is converged
 217052  9.9253e-06  1.2840e-05  1.2148e-05  1.3817e-05  7.8307e-10  7.6952e-06  3.7233e-06  0:01:02   29
Volume Averaged Variable at (3.500000 4.460000 1.200000) is 0.000000e+00
/file/read-macros controlruntime.scm
Loading "././controlruntime.scm"
Done.

> 
/file/read-macros dooropen.scm

/file/read-macros doorclose.scm

/dis se pic dr png /dis se pic x 1920 /dis se pic y 1080

> 
/dis ob dis temp-contour-1 /dis views restore-view top /dis sp ./Pictures/temp-1-%7t.png yes
invalid command [yes]

> 
/dis ob dis temp-contour-2 /dis views restore-view front /dis sp ./Pictures/temp-2-%7t.png yes
invalid command [yes]

> 
/dis ob dis dpm-contour-1 /dis views restore-view top /dis sp ./Pictures/dpm-1-%7t.png yes
invalid command [yes]

> 
/dis ob dis dpm-contour-2 /dis views restore-view front /dis sp ./Pictures/dpm-2-%7t.png yes
invalid command [yes]

> 
/dis ob dis vector-1 /dis views restore-view top /dis sp ./Pictures/vector-%7t.png yes
invalid command [yes]

> 

Writing "./SamplePlane/Plane-1-6710"...

Writing information to ascii file ...
Done.

  step  flow-time  volflow_or  volflow_in volflow_cor     temp_p1    temp_max pressure_or pressure_dif pressure_cor mass_balance heat_balance      dpm_p2      dpm_or     dpm_cor
  6710  8.4800e+02 -2.0817e+00  2.1019e+00 -1.3324e-01  2.9418e+02  3.6864e+02  5.2600e+00  5.0019e+00  2.5810e-01 -1.7609e-04  5.2833e+01  0.0000e+00  5.2057e-14  2.1665e-10
Flow time = 848s, time step = 6710
2990 more time steps

Updating solution at time level N... done.

Advancing DPM injections ....
Injecting 1734 particle parcels with mass 2e-11 at t = 848
number tracked = 1263224, escaped = 510, aborted = 0, trapped = 706, evaporated = 0, incomplete = 0, incomplete_parallel = 0

  iter  continuity  x-velocity  y-velocity  z-velocity      energy           k     epsilon     time/iter
!217052 solution is converged
 217052  9.9253e-06  1.2840e-05  1.2148e-05  1.3817e-05  7.8307e-10  7.6952e-06  3.7233e-06  0:01:48   50
 217053  6.7272e-05  2.6362e-05  2.6070e-05  2.8676e-05  1.3312e-07  2.3269e-05  9.3146e-06  0:01:47   49
 217054  1.4817e-04  2.7337e-05  2.6354e-05  2.8207e-05  1.7506e-08  2.1629e-05  8.9524e-06  0:01:48   48
 217055  1.5843e-04  2.5146e-05  2.4476e-05  2.7354e-05  3.6256e-09  2.0155e-05  8.4820e-06  0:01:45   47
 217056  5.5297e-05  2.3668e-05  2.2905e-05  2.5793e-05  2.3958e-09  1.8832e-05  7.9853e-06  0:01:42   46
 217057  3.8089e-05  2.2460e-05  2.1792e-05  2.4561e-05  1.9807e-09  1.7643e-05  7.5068e-06  0:01:39   45
 217058  2.4716e-05  2.1563e-05  2.0869e-05  2.3553e-05  1.7064e-09  1.6566e-05  7.0642e-06  0:01:37   44
 217059  2.2111e-05  2.0724e-05  2.0023e-05  2.2594e-05  1.5101e-09  1.5588e-05  6.6623e-06  0:01:34   43
 217060  1.8945e-05  1.9944e-05  1.9224e-05  2.1719e-05  1.3615e-09  1.4695e-05  6.3007e-06  0:01:33   42
 217061  1.7942e-05  1.9207e-05  1.8478e-05  2.0873e-05  1.2518e-09  1.3877e-05  5.9761e-06  0:01:31   41
 217062  1.6998e-05  1.8514e-05  1.7774e-05  2.0098e-05  1.1647e-09  1.3126e-05  5.6844e-06  0:01:29   40

  iter  continuity  x-velocity  y-velocity  z-velocity      energy           k     epsilon     time/iter
 217063  1.6556e-05  1.7857e-05  1.7113e-05  1.9350e-05  1.0993e-09  1.2432e-05  5.4212e-06  0:01:27   39
 217064  1.5574e-05  1.7237e-05  1.6487e-05  1.8662e-05  1.0433e-09  1.1792e-05  5.1824e-06  0:01:25   38
 217065  1.5096e-05  1.6646e-05  1.5898e-05  1.7995e-05  1.0020e-09  1.1198e-05  4.9648e-06  0:01:23   37
 217066  1.4040e-05  1.6087e-05  1.5338e-05  1.7380e-05  9.6520e-10  1.0646e-05  4.7660e-06  0:01:21   36
 217067  1.3619e-05  1.5553e-05  1.4809e-05  1.6781e-05  9.3718e-10  1.0133e-05  4.5830e-06  0:01:18   35
 217068  1.2624e-05  1.5046e-05  1.4304e-05  1.6227e-05  9.1070e-10  9.6544e-06  4.4139e-06  0:01:16   34
 217069  1.2206e-05  1.4562e-05  1.3828e-05  1.5686e-05  8.9223e-10  9.2074e-06  4.2574e-06  0:01:13   33
 217070  1.1351e-05  1.4101e-05  1.3370e-05  1.5183e-05  8.7357e-10  8.7892e-06  4.1117e-06  0:01:11   32
 217071  1.0984e-05  1.3660e-05  1.2937e-05  1.4693e-05  8.5947e-10  8.3973e-06  3.9758e-06  0:01:08   31
 217072  1.0210e-05  1.3238e-05  1.2521e-05  1.4236e-05  8.4353e-10  8.0299e-06  3.8489e-06  0:01:06   30
!217073 solution is converged
 217073  9.9480e-06  1.2835e-05  1.2127e-05  1.3788e-05  8.3140e-10  7.6846e-06  3.7299e-06  0:01:03   29
Volume Averaged Variable at (3.500000 4.460000 1.200000) is 0.000000e+00
/file/read-macros dooropen.scm

/file/read-macros doorclose.scm

  step  flow-time  volflow_or  volflow_in volflow_cor     temp_p1    temp_max pressure_or pressure_dif pressure_cor mass_balance heat_balance      dpm_p2      dpm_or     dpm_cor
  6711  8.4820e+02 -2.0817e+00  2.1019e+00 -1.3324e-01  2.9418e+02  3.6864e+02  5.2601e+00  5.0020e+00  2.5812e-01 -1.7639e-04  5.2936e+01  0.0000e+00  5.1957e-14  2.1675e-10
Flow time = 848.2s, time step = 6711
2989 more time steps

Updating solution at time level N... done.

Advancing DPM injections ....
Injecting 1734 particle parcels with mass 2e-11 at t = 848.2
number tracked = 1263742, escaped = 512, aborted = 0, trapped = 721, evaporated = 0, incomplete = 0, incomplete_parallel = 0

  iter  continuity  x-velocity  y-velocity  z-velocity      energy           k     epsilon     time/iter
!217073 solution is converged
 217073  9.9480e-06  1.2835e-05  1.2127e-05  1.3788e-05  8.3140e-10  7.6846e-06  3.7299e-06  0:01:49   50
 217074  6.7168e-05  2.6342e-05  2.6021e-05  2.8632e-05  1.3278e-07  2.3226e-05  9.3096e-06  0:01:50   49
 217075  1.4831e-04  2.7326e-05  2.6318e-05  2.8149e-05  1.7461e-08  2.1588e-05  8.9478e-06  0:01:49   48
 217076  1.5093e-04  2.4945e-05  2.4375e-05  2.7244e-05  3.5814e-09  2.0117e-05  8.4790e-06  0:01:45   47
 217077  5.7039e-05  2.3630e-05  2.2873e-05  2.5760e-05  2.3609e-09  1.8797e-05  7.9835e-06  0:01:43   46
 217078  3.5123e-05  2.2475e-05  2.1747e-05  2.4515e-05  1.9399e-09  1.7610e-05  7.5064e-06  0:01:40   45
 217079  2.5109e-05  2.1554e-05  2.0826e-05  2.3508e-05  1.6703e-09  1.6536e-05  7.0647e-06  0:01:38   44
 217080  2.0294e-05  2.0720e-05  1.9976e-05  2.2571e-05  1.4688e-09  1.5560e-05  6.6640e-06  0:01:37   43
 217081  1.9056e-05  1.9932e-05  1.9187e-05  2.1671e-05  1.3220e-09  1.4669e-05  6.3034e-06  0:01:33   42
 217082  1.7842e-05  1.9198e-05  1.8441e-05  2.0846e-05  1.2061e-09  1.3853e-05  5.9794e-06  0:01:33   41
 217083  1.7346e-05  1.8503e-05  1.7742e-05  2.0051e-05  1.1226e-09  1.3102e-05  5.6880e-06  0:01:30   40

  iter  continuity  x-velocity  y-velocity  z-velocity      energy           k     epsilon     time/iter
 217084  1.6386e-05  1.7849e-05  1.7081e-05  1.9322e-05  1.0544e-09  1.2411e-05  5.4252e-06  0:01:27   39
 217085  1.5880e-05  1.7226e-05  1.6459e-05  1.8617e-05  1.0024e-09  1.1771e-05  5.1868e-06  0:01:24   38
 217086  1.4841e-05  1.6638e-05  1.5869e-05  1.7968e-05  9.5779e-10  1.1179e-05  4.9696e-06  0:01:21   37
 217087  1.4310e-05  1.6078e-05  1.5312e-05  1.7338e-05  9.2802e-10  1.0628e-05  4.7708e-06  0:01:19   36
 217088  1.3312e-05  1.5547e-05  1.4782e-05  1.6755e-05  8.9947e-10  1.0116e-05  4.5882e-06  0:01:16   35
 217089  1.2836e-05  1.5039e-05  1.4281e-05  1.6188e-05  8.7658e-10  9.6388e-06  4.4195e-06  0:01:14   34
 217090  1.1943e-05  1.4557e-05  1.3801e-05  1.5661e-05  8.5447e-10  9.1928e-06  4.2631e-06  0:01:12   33
 217091  1.1571e-05  1.4095e-05  1.3348e-05  1.5147e-05  8.3613e-10  8.7756e-06  4.1177e-06  0:01:09   32
 217092  1.0766e-05  1.3655e-05  1.2913e-05  1.4668e-05  8.1809e-10  8.3847e-06  3.9821e-06  0:01:07   31
 217093  1.0395e-05  1.3233e-05  1.2500e-05  1.4201e-05  8.0286e-10  8.0179e-06  3.8553e-06  0:01:05   30
!217094 solution is converged
 217094  9.7234e-06  1.2830e-05  1.2104e-05  1.3765e-05  7.8682e-10  7.6735e-06  3.7365e-06  0:01:02   29
Volume Averaged Variable at (3.500000 4.460000 1.200000) is 0.000000e+00
/file/read-macros dooropen.scm

/file/read-macros doorclose.scm

  step  flow-time  volflow_or  volflow_in volflow_cor     temp_p1    temp_max pressure_or pressure_dif pressure_cor mass_balance heat_balance      dpm_p2      dpm_or     dpm_cor
  6712  8.4840e+02 -2.0817e+00  2.1019e+00 -1.3324e-01  2.9418e+02  3.6864e+02  5.2601e+00  5.0020e+00  2.5813e-01 -1.7669e-04  5.3026e+01  0.0000e+00  5.1851e-14  2.1684e-10
Flow time = 848.4s, time step = 6712
2988 more time steps

Updating solution at time level N... done.

Advancing DPM injections ....
Injecting 1734 particle parcels with mass 2e-11 at t = 848.4
number tracked = 1264243, escaped = 513, aborted = 0, trapped = 686, evaporated = 0, incomplete = 0, incomplete_parallel = 0

  iter  continuity  x-velocity  y-velocity  z-velocity      energy           k     epsilon     time/iter
!217094 solution is converged
 217094  9.7234e-06  1.2830e-05  1.2104e-05  1.3765e-05  7.8682e-10  7.6735e-06  3.7365e-06  0:01:48   50
 217095  6.7203e-05  2.6322e-05  2.5973e-05  2.8585e-05  1.3238e-07  2.3181e-05  9.3045e-06  0:01:48   49
 217096  1.4768e-04  2.7273e-05  2.6271e-05  2.8108e-05  1.7406e-08  2.1547e-05  8.9432e-06  0:01:46   48
 217097  1.4761e-04  2.4836e-05  2.4278e-05  2.7185e-05  3.5982e-09  2.0078e-05  8.4752e-06  0:01:43   47
 217098  5.6978e-05  2.3578e-05  2.2827e-05  2.5710e-05  2.3746e-09  1.8762e-05  7.9814e-06  0:01:41   46
 217099  3.4791e-05  2.2487e-05  2.1721e-05  2.4473e-05  1.9637e-09  1.7577e-05  7.5054e-06  0:01:38   45
 217100  2.4230e-05  2.1551e-05  2.0792e-05  2.3467e-05  1.6963e-09  1.6505e-05  7.0650e-06  0:01:36   44
 217101  2.0230e-05  2.0707e-05  1.9943e-05  2.2524e-05  1.5027e-09  1.5531e-05  6.6650e-06  0:01:34   43
 217102  1.8977e-05  1.9921e-05  1.9150e-05  2.1635e-05  1.3561e-09  1.4642e-05  6.3053e-06  0:01:31   42
 217103  1.7783e-05  1.9189e-05  1.8406e-05  2.0812e-05  1.2480e-09  1.3827e-05  5.9822e-06  0:01:29   41
 217104  1.7426e-05  1.8492e-05  1.7709e-05  2.0015e-05  1.1616e-09  1.3079e-05  5.6916e-06  0:01:27   40

  iter  continuity  x-velocity  y-velocity  z-velocity      energy           k     epsilon     time/iter
 217105  1.6386e-05  1.7839e-05  1.7049e-05  1.9287e-05  1.0964e-09  1.2389e-05  5.4294e-06  0:01:24   39
 217106  1.5853e-05  1.7217e-05  1.6429e-05  1.8583e-05  1.0420e-09  1.1751e-05  5.1916e-06  0:01:22   38
 217107  1.4809e-05  1.6630e-05  1.5839e-05  1.7935e-05  1.0008e-09  1.1160e-05  4.9748e-06  0:01:20   37
 217108  1.4302e-05  1.6070e-05  1.5285e-05  1.7306e-05  9.6462e-10  1.0611e-05  4.7764e-06  0:01:18   36
 217109  1.3304e-05  1.5539e-05  1.4755e-05  1.6723e-05  9.3621e-10  1.0100e-05  4.5940e-06  0:01:16   35
 217110  1.2825e-05  1.5032e-05  1.4256e-05  1.6156e-05  9.1042e-10  9.6232e-06  4.4256e-06  0:01:13   34
 217111  1.1972e-05  1.4550e-05  1.3777e-05  1.5630e-05  8.9112e-10  9.1783e-06  4.2695e-06  0:01:11   33
 217112  1.1518e-05  1.4089e-05  1.3324e-05  1.5118e-05  8.7125e-10  8.7622e-06  4.1245e-06  0:01:11   32
 217113  1.0754e-05  1.3649e-05  1.2890e-05  1.4640e-05  8.5682e-10  8.3722e-06  3.9890e-06  0:01:08   31
 217114  1.0424e-05  1.3228e-05  1.2479e-05  1.4174e-05  8.4134e-10  8.0063e-06  3.8624e-06  0:01:06   30
!217115 solution is converged
 217115  9.7201e-06  1.2825e-05  1.2082e-05  1.3738e-05  8.2911e-10  7.6628e-06  3.7438e-06  0:01:03   29
Volume Averaged Variable at (3.500000 4.460000 1.200000) is 0.000000e+00
[...]
!224168 solution is converged
 224168  9.8816e-06  1.3745e-05  1.3312e-05  1.4303e-05  4.3128e-10  7.7163e-06  3.3406e-06  0:01:49   50
 224169  5.6333e-05  2.6184e-05  2.5789e-05  2.7715e-05  1.0559e-07  2.1244e-05  7.9521e-06  0:01:46   49
 224170  9.1018e-05  2.5222e-05  2.5419e-05  2.6981e-05  1.5081e-08  1.9782e-05  7.6064e-06  0:01:45   48
 224171  9.2695e-05  2.4561e-05  2.4116e-05  2.5875e-05  2.7754e-09  1.8458e-05  7.1917e-06  0:01:42   47
 224172  3.5201e-05  2.3345e-05  2.2854e-05  2.4653e-05  1.7156e-09  1.7270e-05  6.7678e-06  0:01:40   46
 224173  2.3930e-05  2.2300e-05  2.1766e-05  2.3596e-05  1.3734e-09  1.6197e-05  6.3634e-06  0:01:39   45
 224174  1.8127e-05  2.1447e-05  2.0895e-05  2.2652e-05  1.1514e-09  1.5224e-05  5.9902e-06  0:01:38   44
 224175  1.6775e-05  2.0647e-05  2.0091e-05  2.1758e-05  9.8665e-10  1.4337e-05  5.6509e-06  0:01:35   43
 224176  1.6086e-05  1.9892e-05  1.9339e-05  2.0924e-05  8.6292e-10  1.3524e-05  5.3444e-06  0:01:32   42
 224177  1.5471e-05  1.9181e-05  1.8630e-05  2.0147e-05  7.6739e-10  1.2778e-05  5.0681e-06  0:01:32   41
 224178  1.5303e-05  1.8506e-05  1.7966e-05  1.9405e-05  6.9563e-10  1.2090e-05  4.8185e-06  0:01:29   40

  iter  continuity  x-velocity  y-velocity  z-velocity      energy           k     epsilon     time/iter
 224179  1.4517e-05  1.7867e-05  1.7334e-05  1.8715e-05  6.3895e-10  1.1454e-05  4.5923e-06  0:01:27   39
 224180  1.4100e-05  1.7261e-05  1.6740e-05  1.8054e-05  5.9457e-10  1.0864e-05  4.3867e-06  0:01:26   38
 224181  1.3211e-05  1.6685e-05  1.6173e-05  1.7436e-05  5.5876e-10  1.0317e-05  4.1986e-06  0:01:24   37
 224182  1.2761e-05  1.6137e-05  1.5639e-05  1.6842e-05  5.2959e-10  9.8069e-06  4.0262e-06  0:01:22   36
 224183  1.1932e-05  1.5614e-05  1.5126e-05  1.6285e-05  5.0474e-10  9.3315e-06  3.8675e-06  0:01:19   35
 224184  1.1511e-05  1.5115e-05  1.4642e-05  1.5749e-05  4.8332e-10  8.8873e-06  3.7202e-06  0:01:16   34
 224185  1.0764e-05  1.4638e-05  1.4176e-05  1.5243e-05  4.6433e-10  8.4718e-06  3.5834e-06  0:01:13   33
 224186  1.0394e-05  1.4182e-05  1.3735e-05  1.4757e-05  4.4778e-10  8.0825e-06  3.4564e-06  0:01:12   32
!224187 solution is converged
 224187  9.7240e-06  1.3744e-05  1.3309e-05  1.4296e-05  4.3221e-10  7.7174e-06  3.3379e-06  0:01:09   31
Volume Averaged Variable at (3.500000 4.460000 1.200000) is 0.000000e+00
/file/read-macros dooropen.scm

/file/read-macros doorclose.scm

  step  flow-time  volflow_or  volflow_in volflow_cor     temp_p1    temp_max pressure_or pressure_dif pressure_cor mass_balance heat_balance      dpm_p2      dpm_or     dpm_cor
  7063  9.1860e+02 -2.0816e+00  2.1019e+00 -1.3323e-01  2.9407e+02  3.6742e+02  5.2555e+00  4.9978e+00  2.5762e-01 -8.5675e-05  2.5698e+01  0.0000e+00  2.2514e-14  2.4137e-10
Flow time = 918.6s, time step = 7063
2637 more time steps

Updating solution at time level N... done.

Advancing DPM injections ....
Injecting 1734 particle parcels with mass 2e-11 at t = 918.6
number tracked = 1405508, escaped = 554, aborted = 0, trapped = 748, evaporated = 0, incomplete = 0, incomplete_parallel = 0

  iter  continuity  x-velocity  y-velocity  z-velocity      energy           k     epsilon     time/iter
!224187 solution is converged
 224187  9.7240e-06  1.3744e-05  1.3309e-05  1.4296e-05  4.3221e-10  7.7174e-06  3.3379e-06  0:01:51   50
 224188  5.6231e-05  2.6189e-05  2.5781e-05  2.7710e-05  1.0548e-07  2.1238e-05  7.9443e-06  0:01:49   49
 224189  9.1241e-05  2.5237e-05  2.5440e-05  2.6963e-05  1.5044e-08  1.9777e-05  7.5995e-06  0:01:46   48
 224190  9.2781e-05  2.4562e-05  2.4087e-05  2.5887e-05  2.7729e-09  1.8454e-05  7.1853e-06  0:01:43   47
 224191  3.5677e-05  2.3353e-05  2.2865e-05  2.4648e-05  1.7151e-09  1.7266e-05  6.7614e-06  0:01:41   46
 224192  2.3950e-05  2.2305e-05  2.1757e-05  2.3590e-05  1.3719e-09  1.6194e-05  6.3573e-06  0:01:40   45
 224193  1.8264e-05  2.1447e-05  2.0886e-05  2.2641e-05  1.1505e-09  1.5221e-05  5.9841e-06  0:01:38   44
 224194  1.6504e-05  2.0649e-05  2.0083e-05  2.1751e-05  9.8559e-10  1.4334e-05  5.6448e-06  0:01:37   43
 224195  1.5839e-05  1.9896e-05  1.9330e-05  2.0924e-05  8.6236e-10  1.3522e-05  5.3386e-06  0:01:34   42
 224196  1.5781e-05  1.9182e-05  1.8626e-05  2.0134e-05  7.6784e-10  1.2777e-05  5.0626e-06  0:01:32   41
 224197  1.5077e-05  1.8508e-05  1.7959e-05  1.9402e-05  6.9482e-10  1.2089e-05  4.8131e-06  0:01:29   40

  iter  continuity  x-velocity  y-velocity  z-velocity      energy           k     epsilon     time/iter
 224198  1.4717e-05  1.7868e-05  1.7331e-05  1.8703e-05  6.3878e-10  1.1453e-05  4.5871e-06  0:01:26   39
 224199  1.3849e-05  1.7262e-05  1.6734e-05  1.8051e-05  5.9427e-10  1.0864e-05  4.3813e-06  0:01:24   38
 224200  1.3413e-05  1.6686e-05  1.6172e-05  1.7425e-05  5.5887e-10  1.0316e-05  4.1934e-06  0:01:22   37
 224201  1.2561e-05  1.6137e-05  1.5633e-05  1.6838e-05  5.2848e-10  9.8068e-06  4.0210e-06  0:01:19   36
 224202  1.2124e-05  1.5615e-05  1.5125e-05  1.6274e-05  5.0438e-10  9.3315e-06  3.8621e-06  0:01:17   35
 224203  1.1316e-05  1.5115e-05  1.4636e-05  1.5744e-05  4.8226e-10  8.8875e-06  3.7151e-06  0:01:14   34
 224204  1.0939e-05  1.4639e-05  1.4175e-05  1.5234e-05  4.6315e-10  8.4721e-06  3.5789e-06  0:01:12   33
 224205  1.0225e-05  1.4181e-05  1.3730e-05  1.4751e-05  4.4584e-10  8.0829e-06  3.4521e-06  0:01:09   32
!224206 solution is converged
 224206  9.8841e-06  1.3745e-05  1.3307e-05  1.4288e-05  4.3049e-10  7.7178e-06  3.3338e-06  0:01:08   31
Volume Averaged Variable at (3.500000 4.460000 1.200000) is 0.000000e+00
/file/read-macros dooropen.scm

/file/read-macros doorclose.scm

  step  flow-time  volflow_or  volflow_in volflow_cor     temp_p1    temp_max pressure_or pressure_dif pressure_cor mass_balance heat_balance      dpm_p2      dpm_or     dpm_cor
  7064  9.1880e+02 -2.0816e+00  2.1019e+00 -1.3323e-01  2.9407e+02  3.6745e+02  5.2554e+00  4.9978e+00  2.5761e-01 -8.5016e-05  2.5501e+01  0.0000e+00  2.2332e-14  2.4144e-10
Flow time = 918.8s, time step = 7064
2636 more time steps

Updating solution at time level N... done.

Advancing DPM injections ....
Injecting 1734 particle parcels with mass 2e-11 at t = 918.8
number tracked = 1405940, escaped = 550, aborted = 0, trapped = 713, evaporated = 0, incomplete = 0, incomplete_parallel = 0

  iter  continuity  x-velocity  y-velocity  z-velocity      energy           k     epsilon     time/iter
!224206 solution is converged
 224206  9.8841e-06  1.3745e-05  1.3307e-05  1.4288e-05  4.3049e-10  7.7178e-06  3.3338e-06  0:01:49   50
 224207  5.6346e-05  2.6194e-05  2.5777e-05  2.7701e-05  1.0538e-07  2.1230e-05  7.9352e-06  0:01:47   49
 224208  9.1117e-05  2.5243e-05  2.5436e-05  2.6954e-05  1.5008e-08  1.9770e-05  7.5911e-06  0:01:46   48
 224209  9.2350e-05  2.4570e-05  2.4060e-05  2.5881e-05  2.7668e-09  1.8448e-05  7.1776e-06  0:01:43   47
 224210  3.5257e-05  2.3355e-05  2.2825e-05  2.4647e-05  1.7124e-09  1.7261e-05  6.7546e-06  0:01:40   46
 224211  2.3616e-05  2.2305e-05  2.1761e-05  2.3583e-05  1.3712e-09  1.6189e-05  6.3508e-06  0:01:38   45
 224212  1.7986e-05  2.1451e-05  2.0886e-05  2.2640e-05  1.1489e-09  1.5217e-05  5.9780e-06  0:01:35   44
 224213  1.6926e-05  2.0653e-05  2.0080e-05  2.1745e-05  9.8575e-10  1.4331e-05  5.6393e-06  0:01:33   43
 224214  1.6045e-05  1.9899e-05  1.9326e-05  2.0917e-05  8.6170e-10  1.3520e-05  5.3334e-06  0:01:31   42
 224215  1.5789e-05  1.9185e-05  1.8621e-05  2.0128e-05  7.6750e-10  1.2774e-05  5.0575e-06  0:01:30   41
 224216  1.5123e-05  1.8510e-05  1.7954e-05  1.9396e-05  6.9480e-10  1.2087e-05  4.8084e-06  0:01:29   40

  iter  continuity  x-velocity  y-velocity  z-velocity      energy           k     epsilon     time/iter
 224217  1.4694e-05  1.7870e-05  1.7327e-05  1.8696e-05  6.3828e-10  1.1451e-05  4.5826e-06  0:01:26   39
 224218  1.3867e-05  1.7263e-05  1.6730e-05  1.8044e-05  5.9333e-10  1.0862e-05  4.3772e-06  0:01:23   38
 224219  1.3408e-05  1.6687e-05  1.6168e-05  1.7418e-05  5.5821e-10  1.0315e-05  4.1898e-06  0:01:20   37
 224220  1.2551e-05  1.6138e-05  1.5629e-05  1.6832e-05  5.2831e-10  9.8057e-06  4.0176e-06  0:01:18   36
 224221  1.2113e-05  1.5615e-05  1.5122e-05  1.6268e-05  5.0395e-10  9.3306e-06  3.8589e-06  0:01:16   35
 224222  1.1321e-05  1.5115e-05  1.4633e-05  1.5738e-05  4.8189e-10  8.8868e-06  3.7122e-06  0:01:13   34
 224223  1.0932e-05  1.4639e-05  1.4172e-05  1.5227e-05  4.6334e-10  8.4716e-06  3.5761e-06  0:01:11   33
 224224  1.0220e-05  1.4181e-05  1.3727e-05  1.4745e-05  4.4615e-10  8.0826e-06  3.4495e-06  0:01:09   32
!224225 solution is converged
 224225  9.8781e-06  1.3745e-05  1.3307e-05  1.4280e-05  4.3080e-10  7.7176e-06  3.3314e-06  0:01:07   31
Volume Averaged Variable at (3.500000 4.460000 1.200000) is 0.000000e+00
/file/read-macros dooropen.scm

/file/read-macros doorclose.scm

  step  flow-time  volflow_or  volflow_in volflow_cor     temp_p1    temp_max pressure_or pressure_dif pressure_cor mass_balance heat_balance      dpm_p2      dpm_or     dpm_cor
  7065  9.1900e+02 -2.0816e+00  2.1019e+00 -1.3323e-01  2.9407e+02  3.6747e+02  5.2554e+00  4.9978e+00  2.5761e-01 -8.4360e-05  2.5308e+01  0.0000e+00  2.2222e-14  2.4152e-10
Flow time = 919s, time step = 7065
2635 more time steps

Updating solution at time level N... done.

Advancing DPM injections ....
Injecting 1734 particle parcels with mass 2e-11 at t = 919
number tracked = 1406411, escaped = 575, aborted = 0, trapped = 690, evaporated = 0, incomplete = 0, incomplete_parallel = 0

  iter  continuity  x-velocity  y-velocity  z-velocity      energy           k     epsilon     time/iter
!224225 solution is converged
 224225  9.8781e-06  1.3745e-05  1.3307e-05  1.4280e-05  4.3080e-10  7.7176e-06  3.3314e-06  0:01:47   50
 224226  5.6228e-05  2.6198e-05  2.5768e-05  2.7698e-05  1.0529e-07  2.1221e-05  7.9272e-06  0:01:48   49
 224227  9.0756e-05  2.5251e-05  2.5423e-05  2.6940e-05  1.4973e-08  1.9762e-05  7.5839e-06  0:01:48   48
 224228  9.2313e-05  2.4555e-05  2.4051e-05  2.5892e-05  2.7637e-09  1.8441e-05  7.1712e-06  0:01:45   47
 224229  3.5545e-05  2.3361e-05  2.2823e-05  2.4644e-05  1.7125e-09  1.7254e-05  6.7487e-06  0:01:42   46
 224230  2.4082e-05  2.2316e-05  2.1745e-05  2.3575e-05  1.3700e-09  1.6184e-05  6.3458e-06  0:01:40   45
 224231  1.8114e-05  2.1456e-05  2.0876e-05  2.2629e-05  1.1493e-09  1.5212e-05  5.9737e-06  0:01:39   44
 224232  1.6429e-05  2.0655e-05  2.0073e-05  2.1740e-05  9.8474e-10  1.4327e-05  5.6354e-06  0:01:38   43
 224233  1.5813e-05  1.9901e-05  1.9322e-05  2.0907e-05  8.6123e-10  1.3516e-05  5.3299e-06  0:01:35   42
 224234  1.5446e-05  1.9188e-05  1.8614e-05  2.0129e-05  7.6653e-10  1.2771e-05  5.0544e-06  0:01:32   41
 224235  1.5323e-05  1.8511e-05  1.7951e-05  1.9386e-05  6.9438e-10  1.2084e-05  4.8057e-06  0:01:29   40

  iter  continuity  x-velocity  y-velocity  z-velocity      energy           k     epsilon     time/iter
 224236  1.4515e-05  1.7872e-05  1.7320e-05  1.8695e-05  6.3775e-10  1.1449e-05  4.5801e-06  0:01:26   39
 224237  1.4113e-05  1.7264e-05  1.6728e-05  1.8034e-05  5.9332e-10  1.0860e-05  4.3750e-06  0:01:25   38
 224238  1.3212e-05  1.6688e-05  1.6162e-05  1.7416e-05  5.5793e-10  1.0313e-05  4.1876e-06  0:01:23   37
 224239  1.2777e-05  1.6139e-05  1.5628e-05  1.6822e-05  5.2864e-10  9.8042e-06  4.0155e-06  0:01:20   36
 224240  1.1936e-05  1.5615e-05  1.5116e-05  1.6265e-05  5.0343e-10  9.3295e-06  3.8572e-06  0:01:17   35
 224241  1.1528e-05  1.5116e-05  1.4633e-05  1.5729e-05  4.8169e-10  8.8859e-06  3.7105e-06  0:01:14   34
 224242  1.0764e-05  1.4638e-05  1.4167e-05  1.5223e-05  4.6266e-10  8.4709e-06  3.5744e-06  0:01:12   33
 224243  1.0396e-05  1.4182e-05  1.3727e-05  1.4737e-05  4.4581e-10  8.0821e-06  3.4478e-06  0:01:09   32
!224244 solution is converged
 224244  9.7233e-06  1.3743e-05  1.3302e-05  1.4276e-05  4.2949e-10  7.7174e-06  3.3297e-06  0:01:07   31
Volume Averaged Variable at (3.500000 4.460000 1.200000) is 0.000000e+00
/file/read-macros dooropen.scm

/file/read-macros doorclose.scm

  step  flow-time  volflow_or  volflow_in volflow_cor     temp_p1    temp_max pressure_or pressure_dif pressure_cor mass_balance heat_balance      dpm_p2      dpm_or     dpm_cor
  7066  9.1920e+02 -2.0816e+00  2.1019e+00 -1.3323e-01  2.9407e+02  3.6749e+02  5.2554e+00  4.9978e+00  2.5760e-01 -8.3725e-05  2.5119e+01  0.0000e+00  2.2159e-14  2.4161e-10
Flow time = 919.2s, time step = 7066
2634 more time steps

Updating solution at time level N... done.

Advancing DPM injections ....
Injecting 1734 particle parcels with mass 2e-11 at t = 919.2
number tracked = 1406880, escaped = 528, aborted = 0, trapped = 779, evaporated = 0, incomplete = 0, incomplete_parallel = 0

  iter  continuity  x-velocity  y-velocity  z-velocity      energy           k     epsilon     time/iter
!224244 solution is converged
 224244  9.7233e-06  1.3743e-05  1.3302e-05  1.4276e-05  4.2949e-10  7.7174e-06  3.3297e-06  0:01:48   50
 224245  5.6360e-05  2.6202e-05  2.5764e-05  2.7690e-05  1.0520e-07  2.1212e-05  7.9208e-06  0:01:48   49
 224246  9.1337e-05  2.5263e-05  2.5448e-05  2.6926e-05  1.4941e-08  1.9753e-05  7.5786e-06  0:01:48   48
 224247  9.3004e-05  2.4564e-05  2.4055e-05  2.5890e-05  2.7613e-09  1.8433e-05  7.1664e-06  0:01:45   47
 224248  3.5542e-05  2.3361e-05  2.2809e-05  2.4649e-05  1.7112e-09  1.7247e-05  6.7446e-06  0:01:42   46
 224249  2.4120e-05  2.2316e-05  2.1737e-05  2.3575e-05  1.3700e-09  1.6177e-05  6.3422e-06  0:01:39   45
 224250  1.8177e-05  2.1458e-05  2.0871e-05  2.2626e-05  1.1497e-09  1.5207e-05  5.9704e-06  0:01:37   44
 224251  1.6648e-05  2.0658e-05  2.0068e-05  2.1735e-05  9.8486e-10  1.4322e-05  5.6324e-06  0:01:35   43
 224252  1.5916e-05  1.9904e-05  1.9316e-05  2.0907e-05  8.6101e-10  1.3511e-05  5.3273e-06  0:01:33   42
 224253  1.5769e-05  1.9188e-05  1.8611e-05  2.0118e-05  7.6690e-10  1.2767e-05  5.0521e-06  0:01:32   41
 224254  1.5103e-05  1.8513e-05  1.7945e-05  1.9385e-05  6.9404e-10  1.2080e-05  4.8035e-06  0:01:31   40

  iter  continuity  x-velocity  y-velocity  z-velocity      energy           k     epsilon     time/iter
 224255  1.4773e-05  1.7872e-05  1.7318e-05  1.8686e-05  6.3785e-10  1.1446e-05  4.5782e-06  0:01:28   39
 224256  1.3859e-05  1.7265e-05  1.6721e-05  1.8033e-05  5.9296e-10  1.0857e-05  4.3731e-06  0:01:25   38
 224257  1.3453e-05  1.6688e-05  1.6160e-05  1.7407e-05  5.5800e-10  1.0311e-05  4.1858e-06  0:01:22   37
 224258  1.2556e-05  1.6139e-05  1.5622e-05  1.6820e-05  5.2838e-10  9.8021e-06  4.0138e-06  0:01:19   36
 224259  1.2138e-05  1.5615e-05  1.5115e-05  1.6256e-05  5.0401e-10  9.3275e-06  3.8553e-06  0:01:16   35
 224260  1.1322e-05  1.5115e-05  1.4627e-05  1.5726e-05  4.8229e-10  8.8843e-06  3.7088e-06  0:01:14   34
 224261  1.0941e-05  1.4637e-05  1.4166e-05  1.5215e-05  4.6371e-10  8.4694e-06  3.5728e-06  0:01:12   33
 224262  1.0216e-05  1.4180e-05  1.3722e-05  1.4733e-05  4.4644e-10  8.0808e-06  3.4462e-06  0:01:09   32
!224263 solution is converged
 224263  9.8852e-06  1.3743e-05  1.3302e-05  1.4268e-05  4.3119e-10  7.7162e-06  3.3282e-06  0:01:07   31
Volume Averaged Variable at (3.500000 4.460000 1.200000) is 0.000000e+00
/file/read-macros dooropen.scm

/file/read-macros doorclose.scm

  step  flow-time  volflow_or  volflow_in volflow_cor     temp_p1    temp_max pressure_or pressure_dif pressure_cor mass_balance heat_balance      dpm_p2      dpm_or     dpm_cor
  7067  9.1940e+02 -2.0816e+00  2.1019e+00 -1.3323e-01  2.9407e+02  3.6752e+02  5.2554e+00  4.9978e+00  2.5760e-01 -8.3101e-05  2.4934e+01  0.0000e+00  2.2100e-14  2.4167e-10
Flow time = 919.4s, time step = 7067
2633 more time steps

Updating solution at time level N... done.

Advancing DPM injections ....
Injecting 1734 particle parcels with mass 2e-11 at t = 919.4
number tracked = 1407307, escaped = 532, aborted = 0, trapped = 720, evaporated = 0, incomplete = 0, incomplete_parallel = 0

  iter  continuity  x-velocity  y-velocity  z-velocity      energy           k     epsilon     time/iter
!224263 solution is converged
 224263  9.8852e-06  1.3743e-05  1.3302e-05  1.4268e-05  4.3119e-10  7.7162e-06  3.3282e-06  0:01:48   50
 224264  5.6256e-05  2.6204e-05  2.5755e-05  2.7688e-05  1.0512e-07  2.1200e-05  7.9150e-06  0:01:47   49
 224265  9.1903e-05  2.5275e-05  2.5482e-05  2.6914e-05  1.4914e-08  1.9743e-05  7.5737e-06  0:01:45   48
 224266  9.3172e-05  2.4568e-05  2.4056e-05  2.5894e-05  2.7606e-09  1.8423e-05  7.1621e-06  0:01:43   47
 224267  3.5639e-05  2.3358e-05  2.2813e-05  2.4645e-05  1.7128e-09  1.7238e-05  6.7404e-06  0:01:42   46
 224268  2.3807e-05  2.2315e-05  2.1724e-05  2.3571e-05  1.3720e-09  1.6169e-05  6.3379e-06  0:01:40   45
 224269  1.8220e-05  2.1457e-05  2.0858e-05  2.2622e-05  1.1524e-09  1.5199e-05  5.9665e-06  0:01:38   44
 224270  1.6603e-05  2.0658e-05  2.0058e-05  2.1730e-05  9.8794e-10  1.4315e-05  5.6287e-06  0:01:36   43
 224271  1.5879e-05  1.9904e-05  1.9307e-05  2.0902e-05  8.6468e-10  1.3505e-05  5.3236e-06  0:01:34   42
 224272  1.5801e-05  1.9189e-05  1.8605e-05  2.0112e-05  7.6977e-10  1.2761e-05  5.0485e-06  0:01:31   41
 224273  1.5083e-05  1.8513e-05  1.7939e-05  1.9379e-05  6.9646e-10  1.2076e-05  4.8002e-06  0:01:29   40

  iter  continuity  x-velocity  y-velocity  z-velocity      energy           k     epsilon     time/iter
 224274  1.4739e-05  1.7872e-05  1.7313e-05  1.8680e-05  6.3996e-10  1.1441e-05  4.5748e-06  0:01:28   39
 224275  1.3850e-05  1.7265e-05  1.6717e-05  1.8027e-05  5.9503e-10  1.0854e-05  4.3699e-06  0:01:25   38
 224276  1.3440e-05  1.6688e-05  1.6155e-05  1.7401e-05  5.5978e-10  1.0307e-05  4.1826e-06  0:01:22   37
 224277  1.2564e-05  1.6138e-05  1.5618e-05  1.6814e-05  5.3028e-10  9.7990e-06  4.0106e-06  0:01:19   36
 224278  1.2128e-05  1.5614e-05  1.5111e-05  1.6250e-05  5.0602e-10  9.3249e-06  3.8523e-06  0:01:17   35
 224279  1.1330e-05  1.5114e-05  1.4623e-05  1.5720e-05  4.8393e-10  8.8819e-06  3.7058e-06  0:01:14   34
 224280  1.0937e-05  1.4636e-05  1.4163e-05  1.5209e-05  4.6437e-10  8.4672e-06  3.5699e-06  0:01:12   33
 224281  1.0219e-05  1.4178e-05  1.3719e-05  1.4727e-05  4.4681e-10  8.0789e-06  3.4435e-06  0:01:09   32
!224282 solution is converged
 224282  9.8772e-06  1.3741e-05  1.3299e-05  1.4262e-05  4.3172e-10  7.7144e-06  3.3255e-06  0:01:07   31
Volume Averaged Variable at (3.500000 4.460000 1.200000) is 0.000000e+00
/file/read-macros dooropen.scm

/file/read-macros doorclose.scm

  step  flow-time  volflow_or  volflow_in volflow_cor     temp_p1    temp_max pressure_or pressure_dif pressure_cor mass_balance heat_balance      dpm_p2      dpm_or     dpm_cor
  7068  9.1960e+02 -2.0816e+00  2.1019e+00 -1.3323e-01  2.9407e+02  3.6754e+02  5.2553e+00  4.9977e+00  2.5759e-01 -8.2547e-05  2.4753e+01  0.0000e+00  2.1997e-14  2.4176e-10
Flow time = 919.6s, time step = 7068
2632 more time steps

Updating solution at time level N... done.

Advancing DPM injections ....
Injecting 1734 particle parcels with mass 2e-11 at t = 919.6
number tracked = 1407789, escaped = 494, aborted = 0, trapped = 786, evaporated = 0, incomplete = 0, incomplete_parallel = 0

  iter  continuity  x-velocity  y-velocity  z-velocity      energy           k     epsilon     time/iter
!224282 solution is converged
 224282  9.8772e-06  1.3741e-05  1.3299e-05  1.4262e-05  4.3172e-10  7.7144e-06  3.3255e-06  0:01:48   50
 224283  5.6267e-05  2.6207e-05  2.5748e-05  2.7683e-05  1.0505e-07  2.1187e-05  7.9080e-06  0:01:46   49
 224284  9.1984e-05  2.5281e-05  2.5483e-05  2.6905e-05  1.4887e-08  1.9731e-05  7.5675e-06  0:01:45   48
 224285  9.3165e-05  2.4568e-05  2.4019e-05  2.5896e-05  2.7595e-09  1.8412e-05  7.1567e-06  0:01:42   47
 224286  3.5699e-05  2.3358e-05  2.2791e-05  2.4646e-05  1.7129e-09  1.7228e-05  6.7357e-06  0:01:42   46
 224287  2.3918e-05  2.2320e-05  2.1722e-05  2.3566e-05  1.3726e-09  1.6160e-05  6.3336e-06  0:01:39   45
 224288  1.8123e-05  2.1461e-05  2.0856e-05  2.2616e-05  1.1525e-09  1.5191e-05  5.9623e-06  0:01:37   44
