/pdc/vol/ansys/19.1/v191/fluent/fluent19.1.0/bin/fluent -r19.1.0 3ddp -gu -slurm -t 72 -mpi=ibmmpi -pib -i journal.jou
/pdc/vol/ansys/19.1/v191/fluent/fluent19.1.0/cortex/lnamd64/cortex.19.1.0 -f fluent -gu -i journal.jou (fluent "3ddp -pinfiniband  -host -r19.1.0 -t72 -mpi=ibmmpi -path/pdc/vol/ansys/19.1/v191/fluent -ssh")

WARNING:
Specified graphics driver "x11" is not available on the current runtime environment.
The most appropriate graphics driver based on the current runtime environment is: "null".
Setting graphics driver to: "null".
/pdc/vol/ansys/19.1/v191/fluent/fluent19.1.0/bin/fluent -r19.1.0 3ddp -pinfiniband -host -t72 -mpi=ibmmpi -path/pdc/vol/ansys/19.1/v191/fluent -ssh -cx t02n01.pdc.kth.se:38905:33865
Starting /pdc/vol/ansys/19.1/v191/fluent/fluent19.1.0/lnamd64/3ddp_host/fluent.19.1.0 host -cx t02n01.pdc.kth.se:38905:33865 "(list (rpsetvar (QUOTE parallel/function) "fluent 3ddp -flux -node -r19.1.0 -t72 -pinfiniband -mpi=ibmmpi -ssh") (rpsetvar (QUOTE parallel/rhost) "") (rpsetvar (QUOTE parallel/ruser) "") (rpsetvar (QUOTE parallel/nprocs_string) "72") (rpsetvar (QUOTE parallel/auto-spawn?) #t) (rpsetvar (QUOTE parallel/trace-level) 0) (rpsetvar (QUOTE parallel/remote-shell) 1) (rpsetvar (QUOTE parallel/path) "/pdc/vol/ansys/19.1/v191/fluent") (rpsetvar (QUOTE parallel/hostsfile) "") )"

              Welcome to ANSYS Fluent Release 19.1

              Copyright 1987-2018 ANSYS, Inc. All Rights Reserved.
              Unauthorized use, distribution or duplication is prohibited.
              This product is subject to U.S. laws governing export and re-export.
              For full Legal Notice, see documentation.

Build Time: Apr 09 2018 13:46:05 EDT  Build Id: 10123  
 

     --------------------------------------------------------------
     This is an academic version of ANSYS FLUENT. Usage of this product
     license is limited to the terms and conditions specified in your ANSYS
     license form, additional terms section.
     --------------------------------------------------------------
Host spawning Node 0 on machine "t02n01.pdc.kth.se" (unix).
/pdc/vol/ansys/19.1/v191/fluent/fluent19.1.0/bin/fluent -r19.1.0 3ddp -flux -node -t72 -pinfiniband -mpi=ibmmpi -ssh -mport 193.10.157.105:193.10.157.105:43635:0
-- srun ibmmpi launch --
Starting /pdc/vol/ansys/19.1/v191/fluent/fluent19.1.0/multiport/mpi/lnamd64/ibmmpi/bin/mpirun -e MPI_IBV_NO_FORK_SAFE=1 -e MPI_USE_MALLOPT_MMAP_MAX=0 -prot -IBV -e MPI_HASIC_IBV=1 -srun -n 72 /pdc/vol/ansys/19.1/v191/fluent/fluent19.1.0/lnamd64/3ddp_node/fluent_mpi.19.1.0 node -mpiw ibmmpi -pic infiniband -mport 193.10.157.105:193.10.157.105:43635:0
Host 0 -- ip 193.10.157.105 -- ranks 0 - 23
Host 1 -- ip 193.10.157.107 -- ranks 24 - 47
Host 2 -- ip 193.10.157.108 -- ranks 48 - 71

 host | 0    1    2
======|================
    0 : SHM  IBV  IBV
    1 : IBV  SHM  IBV
    2 : IBV  IBV  SHM

 Prot -  All Intra-node communication is: SHM
 Prot -  All Inter-node communication is: IBV


------------------------------------------------------------------------------------
ID      Hostname           Core   O.S.      PID        Vendor                      
------------------------------------------------------------------------------------
n48-71  t02n04.pdc.kth.se  24/48  Linux-64  3105-3128  Intel(R) Xeon(R) E5-2690 v3 
n24-47  t02n03.pdc.kth.se  24/48  Linux-64  6150-6173  Intel(R) Xeon(R) E5-2690 v3 
n0-23   t02n01.pdc.kth.se  24/48  Linux-64  1285-1308  Intel(R) Xeon(R) E5-2690 v3 
host    t02n01.pdc.kth.se         Linux-64  1097       Intel(R) Xeon(R) E5-2690 v3 

MPI Option Selected: ibmmpi
Selected system interconnect: InfiniBand
------------------------------------------------------------------------------------


Posting ANSYS Product Improvement Program startup data
Done.

Reading journal file journal.jou...

> ;
;
file/read-case OR-COR-16.cas.gz

Multicore SMT processors detected. Processor affinity set!

Reading "\"| gunzip -c \\\"OR-COR-16.cas.gz\\\"\""...

Buffering for file scan...



 9386898 mixed cells, zone 73, binary.
 3946867 mixed cells, zone 74, binary.
Warning: reading 96 partition grid onto 72 compute node machine;
         will auto partition.
 9386898 cell partition ids, zone 73, 96 partitions, binary.
Warning: reading 96 partition grid onto 72 compute node machine;
         will auto partition.
 3946867 cell partition ids, zone 74, 96 partitions, binary.
19350142 mixed interior faces, zone 244, binary.
 8081244 mixed interior faces, zone 245, binary.
     574 mixed wall faces, zone 77, binary.
     574 mixed wall faces, zone 48, binary.
     574 mixed wall faces, zone 78, binary.
     574 mixed wall faces, zone 49, binary.
     574 mixed wall faces, zone 79, binary.
     574 mixed wall faces, zone 46, binary.
     574 mixed wall faces, zone 80, binary.
     574 mixed wall faces, zone 47, binary.
     574 mixed wall faces, zone 81, binary.
     574 mixed wall faces, zone 50, binary.
     898 mixed wall faces, zone 82, binary.
     898 mixed wall faces, zone 51, binary.
     574 mixed wall faces, zone 83, binary.
     574 mixed wall faces, zone 40, binary.
     574 mixed wall faces, zone 84, binary.
     574 mixed wall faces, zone 41, binary.
     574 mixed wall faces, zone 85, binary.
     574 mixed wall faces, zone 38, binary.
     574 mixed wall faces, zone 86, binary.
     574 mixed wall faces, zone 39, binary.
     574 mixed wall faces, zone 87, binary.
     574 mixed wall faces, zone 44, binary.
     574 mixed wall faces, zone 88, binary.
     574 mixed wall faces, zone 45, binary.
     574 mixed wall faces, zone 89, binary.
     574 mixed wall faces, zone 42, binary.
     572 mixed wall faces, zone 90, binary.
     572 mixed wall faces, zone 43, binary.
     574 mixed wall faces, zone 91, binary.
     574 mixed wall faces, zone 32, binary.
     572 mixed wall faces, zone 92, binary.
     572 mixed wall faces, zone 33, binary.
     574 mixed wall faces, zone 93, binary.
     574 mixed wall faces, zone 30, binary.
     572 mixed wall faces, zone 94, binary.
     572 mixed wall faces, zone 31, binary.
     574 mixed wall faces, zone 95, binary.
     574 mixed wall faces, zone 36, binary.
     572 mixed wall faces, zone 96, binary.
     572 mixed wall faces, zone 37, binary.
     574 mixed wall faces, zone 97, binary.
     574 mixed wall faces, zone 34, binary.
     572 mixed wall faces, zone 98, binary.
     572 mixed wall faces, zone 35, binary.
     574 mixed wall faces, zone 99, binary.
     574 mixed wall faces, zone 24, binary.
     572 mixed wall faces, zone 100, binary.
     572 mixed wall faces, zone 25, binary.
     574 mixed wall faces, zone 101, binary.
     574 mixed wall faces, zone 22, binary.
     574 mixed wall faces, zone 102, binary.
     574 mixed wall faces, zone 23, binary.
     572 mixed wall faces, zone 103, binary.
     572 mixed wall faces, zone 28, binary.
     572 mixed wall faces, zone 104, binary.
     572 mixed wall faces, zone 29, binary.
     574 mixed wall faces, zone 105, binary.
     574 mixed wall faces, zone 26, binary.
     572 mixed wall faces, zone 106, binary.
     572 mixed wall faces, zone 27, binary.
     574 mixed wall faces, zone 107, binary.
     574 mixed wall faces, zone 16, binary.
     574 mixed wall faces, zone 108, binary.
     574 mixed wall faces, zone 17, binary.
     574 mixed wall faces, zone 109, binary.
     574 mixed wall faces, zone 14, binary.
     574 mixed wall faces, zone 110, binary.
     574 mixed wall faces, zone 15, binary.
     574 mixed wall faces, zone 111, binary.
     574 mixed wall faces, zone 20, binary.
     574 mixed wall faces, zone 112, binary.
     574 mixed wall faces, zone 21, binary.
     574 mixed wall faces, zone 113, binary.
     574 mixed wall faces, zone 18, binary.
     574 mixed wall faces, zone 114, binary.
     574 mixed wall faces, zone 19, binary.
     574 mixed wall faces, zone 115, binary.
     574 mixed wall faces, zone  8, binary.
     574 mixed wall faces, zone 116, binary.
     574 mixed wall faces, zone  9, binary.
     574 mixed wall faces, zone 117, binary.
     574 mixed wall faces, zone  6, binary.
     574 mixed wall faces, zone 118, binary.
     574 mixed wall faces, zone  7, binary.
     574 mixed wall faces, zone 119, binary.
     574 mixed wall faces, zone 12, binary.
     574 mixed wall faces, zone 120, binary.
     574 mixed wall faces, zone 13, binary.
     574 mixed wall faces, zone 121, binary.
     574 mixed wall faces, zone 10, binary.
     574 mixed wall faces, zone 122, binary.
     574 mixed wall faces, zone 11, binary.
     574 mixed wall faces, zone 123, binary.
     574 mixed wall faces, zone  4, binary.
     574 mixed wall faces, zone 124, binary.
     574 mixed wall faces, zone  5, binary.
     976 mixed wall faces, zone 125, binary.
     976 mixed wall faces, zone  2, binary.
     574 mixed wall faces, zone 126, binary.
     574 mixed wall faces, zone  3, binary.
   42971 triangular velocity-inlet faces, zone 127, binary.
    3750 triangular pressure-outlet faces, zone 128, binary.
    1734 triangular velocity-inlet faces, zone 129, binary.
    1204 triangular pressure-outlet faces, zone 130, binary.
  193965 triangular wall faces, zone 131, binary.
   98169 triangular wall faces, zone 132, binary.
    7945 triangular wall faces, zone 133, binary.
   37956 triangular wall faces, zone 134, binary.
    1826 triangular wall faces, zone 135, binary.
     916 triangular wall faces, zone 136, binary.
    6079 triangular wall faces, zone 137, binary.
     117 triangular wall faces, zone 138, binary.
     574 shadow face pairs, binary. 
     574 shadow face pairs, binary. 
     574 shadow face pairs, binary. 
     574 shadow face pairs, binary. 
     574 shadow face pairs, binary. 
     898 shadow face pairs, binary. 
     574 shadow face pairs, binary. 
     574 shadow face pairs, binary. 
     574 shadow face pairs, binary. 
     574 shadow face pairs, binary. 
     574 shadow face pairs, binary. 
     574 shadow face pairs, binary. 
     574 shadow face pairs, binary. 
     572 shadow face pairs, binary. 
     574 shadow face pairs, binary. 
     572 shadow face pairs, binary. 
     574 shadow face pairs, binary. 
     572 shadow face pairs, binary. 
     574 shadow face pairs, binary. 
     572 shadow face pairs, binary. 
     574 shadow face pairs, binary. 
     572 shadow face pairs, binary. 
     574 shadow face pairs, binary. 
     572 shadow face pairs, binary. 
     574 shadow face pairs, binary. 
     574 shadow face pairs, binary. 
     572 shadow face pairs, binary. 
     572 shadow face pairs, binary. 
     574 shadow face pairs, binary. 
     572 shadow face pairs, binary. 
     574 shadow face pairs, binary. 
     574 shadow face pairs, binary. 
     574 shadow face pairs, binary. 
     574 shadow face pairs, binary. 
     574 shadow face pairs, binary. 
     574 shadow face pairs, binary. 
     574 shadow face pairs, binary. 
     574 shadow face pairs, binary. 
     574 shadow face pairs, binary. 
     574 shadow face pairs, binary. 
     574 shadow face pairs, binary. 
     574 shadow face pairs, binary. 
     574 shadow face pairs, binary. 
     574 shadow face pairs, binary. 
     574 shadow face pairs, binary. 
     574 shadow face pairs, binary. 
     574 shadow face pairs, binary. 
     574 shadow face pairs, binary. 
     976 shadow face pairs, binary. 
     574 shadow face pairs, binary. 
 3001709 nodes, binary.
3001709 node flags, binary.
   80802 "cor-inlet-profile" point-profile points, x, y, z, u, v, w.
  348480 "or-inlet-profile" point-profile points, x, y, z, u, v, w.

Checking the existence of compiled "libudf" UDF library for current platform.
If needed will attempt auto-compilation...





Copied /cfs/klemming/scratch/c/congwang/Fluent/New/transient/case5-1/./ave.c to libudf/src
udf_names.c and user.udf files are 3ddp_host upto date.
udf_names.c and user.udf files are 3ddp_node upto date.


Working...
for d in lnamd64/[23]*; do \
  ( \
    cd $d; \
	rm -rf *.{c,h,cpp,hpp}; \
    for f in ../../src/*.{c,h,cpp,hpp} ../../src/makefile ../../src/user.udf; do \
      if [ -f $f -a ! -f `basename $f` ]; then \
        echo "# linking to" $f "in" $d; \
        ln -s $f .; \
      fi; \
    done; \
    echo ""; \
    echo "# building library in" $d; \
    if [ "" = "1" ]; then \
	echo "# using gcc64"; \
	make ARCHC=gcc64 -k>makelog 2>&1; \
    else \
	if [ "" = "1" ]; then \
		echo "# using gcc"; \
		make ARCHC=gcc -k>makelog 2>&1; \
	else \
		make -k>makelog 2>&1; \
	fi; \
    fi;\
    cat makelog; \
  ) \
done
# linking to ../../src/ave.c in lnamd64/3ddp_host

# building library in lnamd64/3ddp_host
make[1]: Entering directory `/cfs/klemming/scratch/c/congwang/Fluent/New/transient/case5-1/libudf/lnamd64/3ddp_host'
# Generating udf_names.c because of makefile ave.c
make[2]: Entering directory `/cfs/klemming/scratch/c/congwang/Fluent/New/transient/case5-1/libudf/lnamd64/3ddp_host'
make libudf.so "CFLAGS=-D_lnamd64 -D_GNU_SOURCE -fpic -shared -ansi -Wall -O -DPTR_RESTRICT=   " "LDFLAGS=-shared -lm"
make[3]: Entering directory `/cfs/klemming/scratch/c/congwang/Fluent/New/transient/case5-1/libudf/lnamd64/3ddp_host'
# Linking libudf.so because of udf_names.c
cc -shared -lm udf_names.o ave.o  -o libudf.so
make[3]: Leaving directory `/cfs/klemming/scratch/c/congwang/Fluent/New/transient/case5-1/libudf/lnamd64/3ddp_host'
make[2]: Leaving directory `/cfs/klemming/scratch/c/congwang/Fluent/New/transient/case5-1/libudf/lnamd64/3ddp_host'
make[1]: Leaving directory `/cfs/klemming/scratch/c/congwang/Fluent/New/transient/case5-1/libudf/lnamd64/3ddp_host'
# linking to ../../src/ave.c in lnamd64/3ddp_node

# building library in lnamd64/3ddp_node
make[1]: Entering directory `/cfs/klemming/scratch/c/congwang/Fluent/New/transient/case5-1/libudf/lnamd64/3ddp_node'
# Generating udf_names.c because of makefile ave.c
make[2]: Entering directory `/cfs/klemming/scratch/c/congwang/Fluent/New/transient/case5-1/libudf/lnamd64/3ddp_node'
make libudf.so "CFLAGS=-D_lnamd64 -D_GNU_SOURCE -fpic -shared -ansi -Wall -O -DPTR_RESTRICT=   " "LDFLAGS=-shared -lm"
make[3]: Entering directory `/cfs/klemming/scratch/c/congwang/Fluent/New/transient/case5-1/libudf/lnamd64/3ddp_node'
# Linking libudf.so because of udf_names.c
cc -shared -lm udf_names.o ave.o  -o libudf.so
make[3]: Leaving directory `/cfs/klemming/scratch/c/congwang/Fluent/New/transient/case5-1/libudf/lnamd64/3ddp_node'
make[2]: Leaving directory `/cfs/klemming/scratch/c/congwang/Fluent/New/transient/case5-1/libudf/lnamd64/3ddp_node'
make[1]: Leaving directory `/cfs/klemming/scratch/c/congwang/Fluent/New/transient/case5-1/libudf/lnamd64/3ddp_node'

You can also see the 'log'-file in 
the working directory for this compilation history

Done.
Auto-compilation checking of "libudf"...Done

Opening library "/cfs/klemming/scratch/c/congwang/Fluent/New/transient/case5-1/libudf"...
Library "/cfs/klemming/scratch/c/congwang/Fluent/New/transient/case5-1/libudf/lnamd64/3ddp_host/libudf.so" opened
Opening library "/cfs/klemming/scratch/c/congwang/Fluent/New/transient/case5-1/libudf"...
Library "/cfs/klemming/scratch/c/congwang/Fluent/New/transient/case5-1/libudf/lnamd64/3ddp_node/libudf.so" opened
	vol_ave_var
Done.

Opening library "/cfs/klemming/scratch/c/congwang/Fluent/New/transient/case5-1/libudf"...
Library "/cfs/klemming/scratch/c/congwang/Fluent/New/transient/case5-1/libudf/lnamd64/3ddp_node/libudf.so" opened
Opening library "/cfs/klemming/scratch/c/congwang/Fluent/New/transient/case5-1/libudf"...
Library "/cfs/klemming/scratch/c/congwang/Fluent/New/transient/case5-1/libudf/lnamd64/3ddp_node/libudf.so" opened
Opening library "/cfs/klemming/scratch/c/congwang/Fluent/New/transient/case5-1/libudf"...
Library "/cfs/klemming/scratch/c/congwang/Fluent/New/transient/case5-1/libudf/lnamd64/3ddp_node/libudf.so" opened
Opening library "/cfs/klemming/scratch/c/congwang/Fluent/New/transient/case5-1/libudf"...
Library "/cfs/klemming/scratch/c/congwang/Fluent/New/transient/case5-1/libudf/lnamd64/3ddp_node/libudf.so" opened
Opening library "/cfs/klemming/scratch/c/congwang/Fluent/New/transient/case5-1/libudf"...
Library "/cfs/klemming/scratch/c/congwang/Fluent/New/transient/case5-1/libudf/lnamd64/3ddp_node/libudf.so" opened
Opening library "/cfs/klemming/scratch/c/congwang/Fluent/New/transient/case5-1/libudf"...
Library "/cfs/klemming/scratch/c/congwang/Fluent/New/transient/case5-1/libudf/lnamd64/3ddp_node/libudf.so" opened
Opening library "/cfs/klemming/scratch/c/congwang/Fluent/New/transient/case5-1/libudf"...
Library "/cfs/klemming/scratch/c/congwang/Fluent/New/transient/case5-1/libudf/lnamd64/3ddp_node/libudf.so" opened
Opening library "/cfs/klemming/scratch/c/congwang/Fluent/New/transient/case5-1/libudf"...
Library "/cfs/klemming/scratch/c/congwang/Fluent/New/transient/case5-1/libudf/lnamd64/3ddp_node/libudf.so" opened
Opening library "/cfs/klemming/scratch/c/congwang/Fluent/New/transient/case5-1/libudf"...
Library "/cfs/klemming/scratch/c/congwang/Fluent/New/transient/case5-1/libudf/lnamd64/3ddp_node/libudf.so" opened
Opening library "/cfs/klemming/scratch/c/congwang/Fluent/New/transient/case5-1/libudf"...
Library "/cfs/klemming/scratch/c/congwang/Fluent/New/transient/case5-1/libudf/lnamd64/3ddp_node/libudf.so" opened
Opening library "/cfs/klemming/scratch/c/congwang/Fluent/New/transient/case5-1/libudf"...
Library "/cfs/klemming/scratch/c/congwang/Fluent/New/transient/case5-1/libudf/lnamd64/3ddp_node/libudf.so" opened
Opening library "/cfs/klemming/scratch/c/congwang/Fluent/New/transient/case5-1/libudf"...
Library "/cfs/klemming/scratch/c/congwang/Fluent/New/transient/case5-1/libudf/lnamd64/3ddp_node/libudf.so" opened
Opening library "/cfs/klemming/scratch/c/congwang/Fluent/New/transient/case5-1/libudf"...
Library "/cfs/klemming/scratch/c/congwang/Fluent/New/transient/case5-1/libudf/lnamd64/3ddp_node/libudf.so" opened
Opening library "/cfs/klemming/scratch/c/congwang/Fluent/New/transient/case5-1/libudf"...
Library "/cfs/klemming/scratch/c/congwang/Fluent/New/transient/case5-1/libudf/lnamd64/3ddp_node/libudf.so" opened
Opening library "/cfs/klemming/scratch/c/congwang/Fluent/New/transient/case5-1/libudf"...
Library "/cfs/klemming/scratch/c/congwang/Fluent/New/transient/case5-1/libudf/lnamd64/3ddp_node/libudf.so" opened
Opening library "/cfs/klemming/scratch/c/congwang/Fluent/New/transient/case5-1/libudf"...
Library "/cfs/klemming/scratch/c/congwang/Fluent/New/transient/case5-1/libudf/lnamd64/3ddp_node/libudf.so" opened
Opening library "/cfs/klemming/scratch/c/congwang/Fluent/New/transient/case5-1/libudf"...
Library "/cfs/klemming/scratch/c/congwang/Fluent/New/transient/case5-1/libudf/lnamd64/3ddp_node/libudf.so" opened
Opening library "/cfs/klemming/scratch/c/congwang/Fluent/New/transient/case5-1/libudf"...
Library "/cfs/klemming/scratch/c/congwang/Fluent/New/transient/case5-1/libudf/lnamd64/3ddp_node/libudf.so" opened
Opening library "/cfs/klemming/scratch/c/congwang/Fluent/New/transient/case5-1/libudf"...
Library "/cfs/klemming/scratch/c/congwang/Fluent/New/transient/case5-1/libudf/lnamd64/3ddp_node/libudf.so" opened
Opening library "/cfs/klemming/scratch/c/congwang/Fluent/New/transient/case5-1/libudf"...
Library "/cfs/klemming/scratch/c/congwang/Fluent/New/transient/case5-1/libudf/lnamd64/3ddp_node/libudf.so" opened
Opening library "/cfs/klemming/scratch/c/congwang/Fluent/New/transient/case5-1/libudf"...
Library "/cfs/klemming/scratch/c/congwang/Fluent/New/transient/case5-1/libudf/lnamd64/3ddp_node/libudf.so" opened
Opening library "/cfs/klemming/scratch/c/congwang/Fluent/New/transient/case5-1/libudf"...
Library "/cfs/klemming/scratch/c/congwang/Fluent/New/transient/case5-1/libudf/lnamd64/3ddp_node/libudf.so" opened
Opening library "/cfs/klemming/scratch/c/congwang/Fluent/New/transient/case5-1/libudf"...
Library "/cfs/klemming/scratch/c/congwang/Fluent/New/transient/case5-1/libudf/lnamd64/3ddp_node/libudf.so" opened
Opening library "/cfs/klemming/scratch/c/congwang/Fluent/New/transient/case5-1/libudf"...
Library "/cfs/klemming/scratch/c/congwang/Fluent/New/transient/case5-1/libudf/lnamd64/3ddp_node/libudf.so" opened
Opening library "/cfs/klemming/scratch/c/congwang/Fluent/New/transient/case5-1/libudf"...
Library "/cfs/klemming/scratch/c/congwang/Fluent/New/transient/case5-1/libudf/lnamd64/3ddp_node/libudf.so" opened
Opening library "/cfs/klemming/scratch/c/congwang/Fluent/New/transient/case5-1/libudf"...
Library "/cfs/klemming/scratch/c/congwang/Fluent/New/transient/case5-1/libudf/lnamd64/3ddp_node/libudf.so" opened
Opening library "/cfs/klemming/scratch/c/congwang/Fluent/New/transient/case5-1/libudf"...
Library "/cfs/klemming/scratch/c/congwang/Fluent/New/transient/case5-1/libudf/lnamd64/3ddp_node/libudf.so" opened
Opening library "/cfs/klemming/scratch/c/congwang/Fluent/New/transient/case5-1/libudf"...
Library "/cfs/klemming/scratch/c/congwang/Fluent/New/transient/case5-1/libudf/lnamd64/3ddp_node/libudf.so" opened
Opening library "/cfs/klemming/scratch/c/congwang/Fluent/New/transient/case5-1/libudf"...
Library "/cfs/klemming/scratch/c/congwang/Fluent/New/transient/case5-1/libudf/lnamd64/3ddp_node/libudf.so" opened
Opening library "/cfs/klemming/scratch/c/congwang/Fluent/New/transient/case5-1/libudf"...
Library "/cfs/klemming/scratch/c/congwang/Fluent/New/transient/case5-1/libudf/lnamd64/3ddp_node/libudf.so" opened
Opening library "/cfs/klemming/scratch/c/congwang/Fluent/New/transient/case5-1/libudf"...
Library "/cfs/klemming/scratch/c/congwang/Fluent/New/transient/case5-1/libudf/lnamd64/3ddp_node/libudf.so" opened
Opening library "/cfs/klemming/scratch/c/congwang/Fluent/New/transient/case5-1/libudf"...
Library "/cfs/klemming/scratch/c/congwang/Fluent/New/transient/case5-1/libudf/lnamd64/3ddp_node/libudf.so" opened
Opening library "/cfs/klemming/scratch/c/congwang/Fluent/New/transient/case5-1/libudf"...
Library "/cfs/klemming/scratch/c/congwang/Fluent/New/transient/case5-1/libudf/lnamd64/3ddp_node/libudf.so" opened
Opening library "/cfs/klemming/scratch/c/congwang/Fluent/New/transient/case5-1/libudf"...
Library "/cfs/klemming/scratch/c/congwang/Fluent/New/transient/case5-1/libudf/lnamd64/3ddp_node/libudf.so" opened
Opening library "/cfs/klemming/scratch/c/congwang/Fluent/New/transient/case5-1/libudf"...
Library "/cfs/klemming/scratch/c/congwang/Fluent/New/transient/case5-1/libudf/lnamd64/3ddp_node/libudf.so" opened
Opening library "/cfs/klemming/scratch/c/congwang/Fluent/New/transient/case5-1/libudf"...
Library "/cfs/klemming/scratch/c/congwang/Fluent/New/transient/case5-1/libudf/lnamd64/3ddp_node/libudf.so" opened
Opening library "/cfs/klemming/scratch/c/congwang/Fluent/New/transient/case5-1/libudf"...
Library "/cfs/klemming/scratch/c/congwang/Fluent/New/transient/case5-1/libudf/lnamd64/3ddp_node/libudf.so" opened
Opening library "/cfs/klemming/scratch/c/congwang/Fluent/New/transient/case5-1/libudf"...
Library "/cfs/klemming/scratch/c/congwang/Fluent/New/transient/case5-1/libudf/lnamd64/3ddp_node/libudf.so" opened
Opening library "/cfs/klemming/scratch/c/congwang/Fluent/New/transient/case5-1/libudf"...
Library "/cfs/klemming/scratch/c/congwang/Fluent/New/transient/case5-1/libudf/lnamd64/3ddp_node/libudf.so" opened
Opening library "/cfs/klemming/scratch/c/congwang/Fluent/New/transient/case5-1/libudf"...
Library "/cfs/klemming/scratch/c/congwang/Fluent/New/transient/case5-1/libudf/lnamd64/3ddp_node/libudf.so" opened
Opening library "/cfs/klemming/scratch/c/congwang/Fluent/New/transient/case5-1/libudf"...
Library "/cfs/klemming/scratch/c/congwang/Fluent/New/transient/case5-1/libudf/lnamd64/3ddp_node/libudf.so" opened
Opening library "/cfs/klemming/scratch/c/congwang/Fluent/New/transient/case5-1/libudf"...
Library "/cfs/klemming/scratch/c/congwang/Fluent/New/transient/case5-1/libudf/lnamd64/3ddp_node/libudf.so" opened
Opening library "/cfs/klemming/scratch/c/congwang/Fluent/New/transient/case5-1/libudf"...
Library "/cfs/klemming/scratch/c/congwang/Fluent/New/transient/case5-1/libudf/lnamd64/3ddp_node/libudf.so" opened
Opening library "/cfs/klemming/scratch/c/congwang/Fluent/New/transient/case5-1/libudf"...
Library "/cfs/klemming/scratch/c/congwang/Fluent/New/transient/case5-1/libudf/lnamd64/3ddp_node/libudf.so" opened
Opening library "/cfs/klemming/scratch/c/congwang/Fluent/New/transient/case5-1/libudf"...
Library "/cfs/klemming/scratch/c/congwang/Fluent/New/transient/case5-1/libudf/lnamd64/3ddp_node/libudf.so" opened
Opening library "/cfs/klemming/scratch/c/congwang/Fluent/New/transient/case5-1/libudf"...
Library "/cfs/klemming/scratch/c/congwang/Fluent/New/transient/case5-1/libudf/lnamd64/3ddp_node/libudf.so" opened
Opening library "/cfs/klemming/scratch/c/congwang/Fluent/New/transient/case5-1/libudf"...
Library "/cfs/klemming/scratch/c/congwang/Fluent/New/transient/case5-1/libudf/lnamd64/3ddp_node/libudf.so" opened
Opening library "/cfs/klemming/scratch/c/congwang/Fluent/New/transient/case5-1/libudf"...
Library "/cfs/klemming/scratch/c/congwang/Fluent/New/transient/case5-1/libudf/lnamd64/3ddp_node/libudf.so" opened
Opening library "/cfs/klemming/scratch/c/congwang/Fluent/New/transient/case5-1/libudf"...
Library "/cfs/klemming/scratch/c/congwang/Fluent/New/transient/case5-1/libudf/lnamd64/3ddp_node/libudf.so" opened
Opening library "/cfs/klemming/scratch/c/congwang/Fluent/New/transient/case5-1/libudf"...
Library "/cfs/klemming/scratch/c/congwang/Fluent/New/transient/case5-1/libudf/lnamd64/3ddp_node/libudf.so" opened
Opening library "/cfs/klemming/scratch/c/congwang/Fluent/New/transient/case5-1/libudf"...
Library "/cfs/klemming/scratch/c/congwang/Fluent/New/transient/case5-1/libudf/lnamd64/3ddp_node/libudf.so" opened
Opening library "/cfs/klemming/scratch/c/congwang/Fluent/New/transient/case5-1/libudf"...
Library "/cfs/klemming/scratch/c/congwang/Fluent/New/transient/case5-1/libudf/lnamd64/3ddp_node/libudf.so" opened
Opening library "/cfs/klemming/scratch/c/congwang/Fluent/New/transient/case5-1/libudf"...
Library "/cfs/klemming/scratch/c/congwang/Fluent/New/transient/case5-1/libudf/lnamd64/3ddp_node/libudf.so" opened
Opening library "/cfs/klemming/scratch/c/congwang/Fluent/New/transient/case5-1/libudf"...
Library "/cfs/klemming/scratch/c/congwang/Fluent/New/transient/case5-1/libudf/lnamd64/3ddp_node/libudf.so" opened
Opening library "/cfs/klemming/scratch/c/congwang/Fluent/New/transient/case5-1/libudf"...
Library "/cfs/klemming/scratch/c/congwang/Fluent/New/transient/case5-1/libudf/lnamd64/3ddp_node/libudf.so" opened
Opening library "/cfs/klemming/scratch/c/congwang/Fluent/New/transient/case5-1/libudf"...
Library "/cfs/klemming/scratch/c/congwang/Fluent/New/transient/case5-1/libudf/lnamd64/3ddp_node/libudf.so" opened
Opening library "/cfs/klemming/scratch/c/congwang/Fluent/New/transient/case5-1/libudf"...
Library "/cfs/klemming/scratch/c/congwang/Fluent/New/transient/case5-1/libudf/lnamd64/3ddp_node/libudf.so" opened
Opening library "/cfs/klemming/scratch/c/congwang/Fluent/New/transient/case5-1/libudf"...
Library "/cfs/klemming/scratch/c/congwang/Fluent/New/transient/case5-1/libudf/lnamd64/3ddp_node/libudf.so" opened
Opening library "/cfs/klemming/scratch/c/congwang/Fluent/New/transient/case5-1/libudf"...
Library "/cfs/klemming/scratch/c/congwang/Fluent/New/transient/case5-1/libudf/lnamd64/3ddp_node/libudf.so" opened
Opening library "/cfs/klemming/scratch/c/congwang/Fluent/New/transient/case5-1/libudf"...
Library "/cfs/klemming/scratch/c/congwang/Fluent/New/transient/case5-1/libudf/lnamd64/3ddp_node/libudf.so" opened
Opening library "/cfs/klemming/scratch/c/congwang/Fluent/New/transient/case5-1/libudf"...
Library "/cfs/klemming/scratch/c/congwang/Fluent/New/transient/case5-1/libudf/lnamd64/3ddp_node/libudf.so" opened
Opening library "/cfs/klemming/scratch/c/congwang/Fluent/New/transient/case5-1/libudf"...
Library "/cfs/klemming/scratch/c/congwang/Fluent/New/transient/case5-1/libudf/lnamd64/3ddp_node/libudf.so" opened
Opening library "/cfs/klemming/scratch/c/congwang/Fluent/New/transient/case5-1/libudf"...
Library "/cfs/klemming/scratch/c/congwang/Fluent/New/transient/case5-1/libudf/lnamd64/3ddp_node/libudf.so" opened
Opening library "/cfs/klemming/scratch/c/congwang/Fluent/New/transient/case5-1/libudf"...
Library "/cfs/klemming/scratch/c/congwang/Fluent/New/transient/case5-1/libudf/lnamd64/3ddp_node/libudf.so" opened
Opening library "/cfs/klemming/scratch/c/congwang/Fluent/New/transient/case5-1/libudf"...
Library "/cfs/klemming/scratch/c/congwang/Fluent/New/transient/case5-1/libudf/lnamd64/3ddp_node/libudf.so" opened
Opening library "/cfs/klemming/scratch/c/congwang/Fluent/New/transient/case5-1/libudf"...
Library "/cfs/klemming/scratch/c/congwang/Fluent/New/transient/case5-1/libudf/lnamd64/3ddp_node/libudf.so" opened
Opening library "/cfs/klemming/scratch/c/congwang/Fluent/New/transient/case5-1/libudf"...
Library "/cfs/klemming/scratch/c/congwang/Fluent/New/transient/case5-1/libudf/lnamd64/3ddp_node/libudf.so" opened
Opening library "/cfs/klemming/scratch/c/congwang/Fluent/New/transient/case5-1/libudf"...
Library "/cfs/klemming/scratch/c/congwang/Fluent/New/transient/case5-1/libudf/lnamd64/3ddp_node/libudf.so" opened
Opening library "/cfs/klemming/scratch/c/congwang/Fluent/New/transient/case5-1/libudf"...
Library "/cfs/klemming/scratch/c/congwang/Fluent/New/transient/case5-1/libudf/lnamd64/3ddp_node/libudf.so" opened
Opening library "/cfs/klemming/scratch/c/congwang/Fluent/New/transient/case5-1/libudf"...
Library "/cfs/klemming/scratch/c/congwang/Fluent/New/transient/case5-1/libudf/lnamd64/3ddp_node/libudf.so" opened
Opening library "/cfs/klemming/scratch/c/congwang/Fluent/New/transient/case5-1/libudf"...
Library "/cfs/klemming/scratch/c/congwang/Fluent/New/transient/case5-1/libudf/lnamd64/3ddp_node/libudf.so" opened
Building...
     mesh
	auto partitioning mesh by Metis (fast),
	distributing mesh
		pairs..................................................,
		parts..................................................,
		faces..................................................,
		nodes..................................................,
		shadow nodes..................................................,
		cells..................................................,
        inter-node communication reduction using architecture-aware remapping: 70%
        bandwidth reduction using Reverse Cuthill-McKee: 182751/4137 = 44.1748
     materials,
     interface,
     domains,
	mixture
     zones,
	or_equip
	or_lamp_heat
	or_lamp_wall
	or_persons
	or_table
	cor_wall
	or_wall
	cor_outlet
	cor_inlet
	or_inlet
	interior-cor
	interior-or
	or_outlet
	sampler
	xdoor-d50
	xdoor-d50-shadow
	xdoor-d49
	xdoor-d49-shadow
	xdoor-d48
	xdoor-d48-shadow
	xdoor-d47
	xdoor-d47-shadow
	xdoor-d46
	xdoor-d46-shadow
	xdoor-d45
	xdoor-d45-shadow
	xdoor-d44
	xdoor-d44-shadow
	xdoor-d43
	xdoor-d43-shadow
	xdoor-d42
	xdoor-d42-shadow
	xdoor-d41
	xdoor-d41-shadow
	xdoor-d40
	xdoor-d40-shadow
	xdoor-d39
	xdoor-d39-shadow
	xdoor-d38
	xdoor-d38-shadow
	xdoor-d37
	xdoor-d37-shadow
	xdoor-d36
	xdoor-d36-shadow
	xdoor-d35
	xdoor-d35-shadow
	xdoor-d34
	xdoor-d34-shadow
	xdoor-d33
	xdoor-d33-shadow
	xdoor-d32
	xdoor-d32-shadow
	xdoor-d31
	xdoor-d31-shadow
	xdoor-d30
	xdoor-d30-shadow
	xdoor-d29
	xdoor-d29-shadow
	xdoor-d28
	xdoor-d28-shadow
	xdoor-d27
	xdoor-d27-shadow
	xdoor-d26
	xdoor-d26-shadow
	xdoor-d25
	xdoor-d25-shadow
	xdoor-d24
	xdoor-d24-shadow
	xdoor-d23
	xdoor-d23-shadow
	xdoor-d22
	xdoor-d22-shadow
	xdoor-d21
	xdoor-d21-shadow
	xdoor-d20
	xdoor-d20-shadow
	xdoor-d19
	xdoor-d19-shadow
	xdoor-d18
	xdoor-d18-shadow
	xdoor-d17
	xdoor-d17-shadow
	xdoor-d16
	xdoor-d16-shadow
	xdoor-d15
	xdoor-d15-shadow
	xdoor-d14
	xdoor-d14-shadow
	xdoor-d13
	xdoor-d13-shadow
	xdoor-d12
	xdoor-d12-shadow
	xdoor-d11
	xdoor-d11-shadow
	xdoor-d10
	xdoor-d10-shadow
	xdoor-d09
	xdoor-d09-shadow
	xdoor-d08
	xdoor-d08-shadow
	xdoor-d07
	xdoor-d07-shadow
	xdoor-d06
	xdoor-d06-shadow
	xdoor-d05
	xdoor-d05-shadow
	xdoor-d04
	xdoor-d04-shadow
	xdoor-d03
	xdoor-d03-shadow
	xdoor-d02
	xdoor-d02-shadow
	xdoor-d01
	xdoor-d01-shadow
	cor
	or
Skipping variable seco-breakup-madabhushi-c0 for injection injection-1
Skipping variable seco-breakup-madabhushi-ligament-factor for injection injection-1
Skipping variable start-at-flow-time-in-unsteady-inj-file for injection injection-1
Skipping variable interval-to-repeat-in-unsteady-inj-file for injection injection-1
Skipping variable seco-breakup-madabhushi-c0 for injection injection-1
Skipping variable seco-breakup-madabhushi-ligament-factor for injection injection-1
Skipping variable start-at-flow-time-in-unsteady-inj-file for injection injection-1
Skipping variable interval-to-repeat-in-unsteady-inj-file for injection injection-1
Skipping variable seco-breakup-madabhushi-c0 for injection injection-1
Skipping variable seco-breakup-madabhushi-ligament-factor for injection injection-1
Skipping variable start-at-flow-time-in-unsteady-inj-file for injection injection-1
Skipping variable interval-to-repeat-in-unsteady-inj-file for injection injection-1
     parallel,
Done.

> file/read-data OR-COR-16-05800.dat.gz

Reading "\"| gunzip -c \\\"OR-COR-16-05800.dat.gz\\\"\""...




reading 530765 particles for injection injection-1.
 
 read 530765 particles for injection injection-1.
 locating particles on compute nodes...
all particles successfully re-located!
Parallel variables...
Done.

> ;
;
/define/boundary-conditions/modify-zones/zone-type xdoor-d01  porous-jump 
wall 82 and wall 51 sewn together, wall 51 deleted.



> /define/boundary-conditions porous-jump (xdoor-d01)
, , 1 50 , ,
Resetting "DEM Collision Partner" from *dem-unknown* to none.
  

> /define/boundary-conditions outlet-vent (or_outlet)
or_outlet , , 3.22 , , , , , , , , , , ,
Resetting "DEM Collision Partner" from *dem-unknown* to none.
 ,
Loss Coefficient
 , 0

> ; 
;
; solve/set/under-relaxation pressure 0.7 mom 0.3 temperature 1.0  k 0.8  epsilon 0.8
;
solve/monitors/residual/convergence-criteria 1e-5 , , , , , , , invalid command [,]
, , , , , ;

> ;
;
; define/boundary-conditions/outlet-vent , , , , , , , , , , , , , , ,   5.0
;
;
;
file/auto-save/case-frequency if-case-is-modified

> file/auto-save/data-frequency 500

> file/auto-save/root-name OR-COR.gz

> ;
;
;
;
; solve/initialize/initialize-flow
; solve/initialize/hyb-initialization
; solve/initialize/fmg-initialization yes
;
;
;
;
; solve/iterate 1000
solve/set/time-step 0.01

> solve/dual-time-iterate 500 50 
Updating solution at time level N... done.

Advancing DPM injections ....
Injecting 1734 particle parcels with mass 2e-11 at t = 761
number tracked = 532499, escaped = 22, aborted = 0, trapped = 27, evaporated = 0, incomplete = 0, incomplete_parallel = 0

  iter  continuity  x-velocity  y-velocity  z-velocity      energy           k     epsilon     time/iter
!216642 solution is converged
 216642  9.3974e-06  4.8007e-06  5.6582e-06  6.0540e-06  6.6006e-11  2.7226e-06  1.5739e-06  0:00:00   50
 216643  9.8253e-03  3.9393e-05  3.7501e-05  3.6239e-05  2.8059e-07  7.0169e-05  4.1196e-05  0:03:23   49

Warning: detecting divergent flow at 1D porous jump zone 82
 216644  6.6875e-03  5.2815e-05  1.0675e-04  5.5421e-05  3.8297e-09  4.7827e-05  3.0147e-05  0:03:01   48

Warning: detecting divergent flow at 1D porous jump zone 82
 216645  4.8369e-03  9.7016e-05  1.3221e-04  7.4584e-05  1.6705e-09  3.1691e-05  2.2784e-05  0:02:42   47

Warning: detecting divergent flow at 1D porous jump zone 82
 216646  2.6474e-03  8.7018e-05  1.1326e-04  6.1276e-05  2.3080e-09  2.2452e-05  1.8019e-05  0:02:30   46

Warning: detecting divergent flow at 1D porous jump zone 82
 216647  4.4754e-03  2.2732e-04  2.8081e-04  1.4597e-04  2.0448e-09  1.5739e-05  1.4661e-05  0:02:16   45

Warning: detecting divergent flow at 1D porous jump zone 82
 216648  2.2810e-03  1.8325e-04  2.2589e-04  1.1408e-04  1.1671e-09  1.1435e-05  1.1976e-05  0:02:07   44

Warning: detecting divergent flow at 1D porous jump zone 82
 216649  1.0599e-03  1.2372e-04  1.5178e-04  7.1076e-05  1.0162e-09  8.4818e-06  9.7457e-06  0:01:58   43

Warning: detecting divergent flow at 1D porous jump zone 82
 216650  6.1585e-04  1.0252e-04  1.2482e-04  5.8512e-05  5.5490e-10  6.4674e-06  8.1084e-06  0:01:52   42

Warning: detecting divergent flow at 1D porous jump zone 82
 216651  4.3961e-04  7.7441e-05  9.7768e-05  4.8853e-05  4.6314e-10  5.0356e-06  7.0266e-06  0:01:45   41

Warning: detecting divergent flow at 1D porous jump zone 82
 216652  2.8802e-04  6.4956e-05  8.1705e-05  4.0692e-05  3.5659e-10  4.0074e-06  6.2690e-06  0:01:40   40

Warning: detecting divergent flow at 1D porous jump zone 82

  iter  continuity  x-velocity  y-velocity  z-velocity      energy           k     epsilon     time/iter
 216653  2.4805e-04  5.3156e-05  6.9320e-05  3.5529e-05  2.9476e-10  3.2428e-06  5.5789e-06  0:01:34   39

Warning: detecting divergent flow at 1D porous jump zone 82
 216654  1.8591e-04  4.4192e-05  5.7553e-05  2.9484e-05  2.4042e-10  2.6648e-06  4.9069e-06  0:01:30   38

Warning: detecting divergent flow at 1D porous jump zone 82
 216655  1.6933e-04  3.5804e-05  4.7319e-05  2.4530e-05  2.0277e-10  2.2194e-06  4.2661e-06  0:01:26   37

Warning: detecting divergent flow at 1D porous jump zone 82
 216656  1.5476e-04  2.8154e-05  3.7535e-05  1.9588e-05  1.7066e-10  1.8699e-06  3.6789e-06  0:01:22   36
 216657  1.6404e-04  2.0736e-05  2.8461e-05  1.5611e-05  1.5458e-10  1.5927e-06  3.1606e-06  0:01:19   35
 216658  1.6923e-04  1.5262e-05  2.1309e-05  1.1947e-05  1.4162e-10  1.3684e-06  2.7122e-06  0:01:16   34
 216659  1.7713e-04  1.1413e-05  1.6167e-05  9.6025e-06  1.4066e-10  1.1866e-06  2.3336e-06  0:01:14   33
 216660  1.7873e-04  9.7341e-06  1.3413e-05  8.4053e-06  1.3476e-10  1.0372e-06  2.0156e-06  0:01:11   32
 216661  1.7700e-04  9.4102e-06  1.2445e-05  8.2381e-06  1.3162e-10  9.1280e-07  1.7476e-06  0:01:08   31
 216662  1.7010e-04  9.8932e-06  1.2414e-05  8.0683e-06  1.2093e-10  8.0966e-07  1.5244e-06  0:01:06   30
 216663  1.5514e-04  1.0057e-05  1.2440e-05  8.1998e-06  1.1339e-10  7.1910e-07  1.3334e-06  0:01:03   29

  iter  continuity  x-velocity  y-velocity  z-velocity      energy           k     epsilon     time/iter
 216664  1.4137e-04  1.0290e-05  1.2690e-05  8.1270e-06  1.0986e-10  6.4306e-07  1.1709e-06  0:01:01   28
 216665  1.2814e-04  1.0568e-05  1.2797e-05  7.8013e-06  9.3145e-11  5.7659e-07  1.0324e-06  0:00:59   27
 216666  9.7480e-05  9.5671e-06  1.1335e-05  6.9520e-06  8.8661e-11  5.1575e-07  9.1162e-07  0:00:56   26
 216667  8.8649e-05  9.3043e-06  1.1046e-05  6.6557e-06  7.3413e-11  4.6420e-07  8.0617e-07  0:00:54   25
 216668  7.0510e-05  8.3116e-06  9.8352e-06  6.0169e-06  6.9392e-11  4.1684e-07  7.1266e-07  0:00:52   24
 216669  6.5510e-05  7.7159e-06  9.6088e-06  5.8551e-06  5.4853e-11  3.7503e-07  6.3028e-07  0:00:49   23
 216670  4.3381e-05  6.4997e-06  8.0588e-06  4.9606e-06  4.6579e-11  3.3732e-07  5.5811e-07  0:00:47   22
 216671  3.0844e-05  5.4889e-06  6.7791e-06  4.2105e-06  3.9447e-11  3.0364e-07  4.9507e-07  0:00:45   21
 216672  2.3164e-05  4.6256e-06  5.7164e-06  3.5872e-06  3.6416e-11  2.7361e-07  4.4033e-07  0:00:44   20
 216673  2.2037e-05  3.9664e-06  4.9739e-06  3.1097e-06  2.8924e-11  2.4660e-07  3.9121e-07  0:00:41   19
 216674  1.4731e-05  3.2340e-06  4.0836e-06  2.5963e-06  2.4053e-11  2.2232e-07  3.4789e-07  0:00:39   18

  iter  continuity  x-velocity  y-velocity  z-velocity      energy           k     epsilon     time/iter
 216675  1.1687e-05  2.5697e-06  3.2813e-06  2.1474e-06  1.9809e-11  2.0032e-07  3.0939e-07  0:00:37   17
 216676  1.0588e-05  1.9718e-06  2.5674e-06  1.7771e-06  1.6771e-11  1.8087e-07  2.7528e-07  0:00:35   16
!216677 solution is converged
 216677  9.5533e-06  1.5076e-06  2.0512e-06  1.4861e-06  1.4196e-11  1.6343e-07  2.4534e-07  0:00:33   15
Volume Averaged Variable at (3.500000 4.460000 1.200000) is 0.000000e+00
/file/read-macros dooropen.scm

/file/read-macros doorclose.scm

  step  flow-time  volflow_or  volflow_in volflow_cor     temp_p1    temp_max pressure_or pressure_dif pressure_cor mass_balance heat_balance      dpm_p2      dpm_or     dpm_cor
  5801  7.6101e+02 -2.0960e+00  2.1019e+00 -1.1901e-01  2.9414e+02  3.6914e+02  4.7156e+00  4.2965e+00  4.1916e-01 -1.1119e-04  3.3164e+01  0.0000e+00  9.7544e-13  8.9215e-11
Flow time = 761.01s, time step = 5801
499 more time steps

Updating solution at time level N... done.

Advancing DPM injections ....
number tracked = 532450, escaped = 12, aborted = 0, trapped = 27, evaporated = 0, incomplete = 0, incomplete_parallel = 0

  iter  continuity  x-velocity  y-velocity  z-velocity      energy           k     epsilon     time/iter
!216677 solution is converged
 216677  9.5533e-06  1.5076e-06  2.0512e-06  1.4861e-06  1.4196e-11  1.6343e-07  2.4534e-07  0:01:49   50
 216678  4.0323e-04  2.3749e-04  3.1126e-04  1.6675e-04  2.8146e-07  7.2073e-05  4.3020e-05  0:01:48   49
 216679  1.0784e-03  1.6702e-04  2.3455e-04  1.2944e-04  3.8008e-09  4.8655e-05  3.3240e-05  0:01:46   48
 216680  7.4978e-04  1.4663e-04  1.8497e-04  1.0003e-04  1.4180e-09  3.3333e-05  2.5212e-05  0:01:44   47
 216681  5.4054e-04  1.1849e-04  1.4171e-04  7.6854e-05  6.8930e-10  2.3200e-05  1.9041e-05  0:01:43   46
 216682  4.0706e-04  8.9559e-05  1.0650e-04  5.8363e-05  4.6279e-10  1.6420e-05  1.4442e-05  0:01:40   45
 216683  3.7055e-04  6.4085e-05  7.9523e-05  4.4761e-05  3.4914e-10  1.1832e-05  1.1055e-05  0:01:38   44
 216684  3.4257e-04  4.6449e-05  5.9617e-05  3.3759e-05  2.4915e-10  8.6846e-06  8.5671e-06  0:01:36   43
 216685  2.9709e-04  3.3454e-05  4.4581e-05  2.6157e-05  1.9809e-10  6.4971e-06  6.7312e-06  0:01:33   42
 216686  2.2746e-04  2.5462e-05  3.5171e-05  2.1215e-05  1.5736e-10  4.9493e-06  5.3613e-06  0:01:32   41
 216687  2.0100e-04  1.8238e-05  2.6658e-05  1.6982e-05  1.3100e-10  3.8443e-06  4.3252e-06  0:01:30   40

  iter  continuity  x-velocity  y-velocity  z-velocity      energy           k     epsilon     time/iter
 216688  1.5294e-04  1.4433e-05  2.1329e-05  1.3779e-05  1.1298e-10  3.0394e-06  3.5325e-06  0:01:28   39
 216689  1.1189e-04  1.1863e-05  1.7601e-05  1.1560e-05  9.7168e-11  2.4433e-06  2.9180e-06  0:01:24   38
 216690  8.3602e-05  9.9476e-06  1.4752e-05  9.8379e-06  8.4327e-11  1.9943e-06  2.4360e-06  0:01:21   37
 216691  6.1304e-05  8.5420e-06  1.2604e-05  8.5055e-06  7.6171e-11  1.6504e-06  2.0534e-06  0:01:19   36
 216692  4.9551e-05  7.6645e-06  1.1300e-05  7.7093e-06  6.7000e-11  1.3851e-06  1.7441e-06  0:01:17   35
 216693  3.5100e-05  6.8747e-06  1.0004e-05  6.7517e-06  6.5545e-11  1.1742e-06  1.4934e-06  0:01:15   34
 216694  4.1949e-05  6.9438e-06  9.8774e-06  6.4124e-06  6.2000e-11  1.0057e-06  1.2865e-06  0:01:12   33
 216695  4.0483e-05  6.7589e-06  9.3134e-06  5.8239e-06  5.4929e-11  8.6825e-07  1.1143e-06  0:01:11   32
 216696  3.8073e-05  6.4825e-06  8.7400e-06  5.3249e-06  4.8016e-11  7.5472e-07  9.6953e-07  0:01:08   31
 216697  3.4425e-05  6.0284e-06  8.0787e-06  4.8770e-06  4.4248e-11  6.6054e-07  8.4743e-07  0:01:06   30
 216698  3.4833e-05  5.7665e-06  7.7088e-06  4.5568e-06  3.8124e-11  5.8063e-07  7.4312e-07  0:01:03   29

  iter  continuity  x-velocity  y-velocity  z-velocity      energy           k     epsilon     time/iter
 216699  2.8642e-05  5.2073e-06  6.9531e-06  4.0973e-06  3.5767e-11  5.1280e-07  6.5417e-07  0:01:02   28
 216700  2.8775e-05  4.9126e-06  6.5677e-06  3.8688e-06  3.0402e-11  4.5440e-07  5.7719e-07  0:01:00   27
 216701  2.1756e-05  4.3367e-06  5.7966e-06  3.4093e-06  2.9218e-11  4.0379e-07  5.1089e-07  0:00:58   26
 216702  2.1867e-05  4.0282e-06  5.4273e-06  3.1754e-06  2.6225e-11  3.6000e-07  4.5313e-07  0:00:57   25
 216703  1.8883e-05  3.6565e-06  4.9088e-06  2.8613e-06  2.2134e-11  3.2146e-07  4.0254e-07  0:00:54   24
 216704  1.3381e-05  3.1509e-06  4.2529e-06  2.4972e-06  2.1854e-11  2.8779e-07  3.5882e-07  0:00:52   23
 216705  1.4167e-05  2.8665e-06  3.8922e-06  2.2818e-06  1.8041e-11  2.5779e-07  3.1998e-07  0:00:49   22
!216706 solution is converged
 216706  9.5713e-06  2.4402e-06  3.3422e-06  1.9808e-06  1.6363e-11  2.3139e-07  2.8613e-07  0:00:46   21
Volume Averaged Variable at (3.500000 4.460000 1.200000) is 0.000000e+00
/file/read-macros dooropen.scm

/file/read-macros doorclose.scm

  step  flow-time  volflow_or  volflow_in volflow_cor     temp_p1    temp_max pressure_or pressure_dif pressure_cor mass_balance heat_balance      dpm_p2      dpm_or     dpm_cor
  5802  7.6102e+02 -2.0892e+00  2.1019e+00 -1.2581e-01  2.9414e+02  3.6914e+02  4.7872e+00  4.5698e+00  2.1741e-01 -1.8438e-05  5.7326e+00  0.0000e+00  9.7539e-13  8.9208e-11
Flow time = 761.02s, time step = 5802
498 more time steps

Updating solution at time level N... done.

Advancing DPM injections ....
number tracked = 532411, escaped = 12, aborted = 0, trapped = 41, evaporated = 0, incomplete = 0, incomplete_parallel = 0

  iter  continuity  x-velocity  y-velocity  z-velocity      energy           k     epsilon     time/iter
!216706 solution is converged
 216706  9.5713e-06  2.4402e-06  3.3422e-06  1.9808e-06  1.6363e-11  2.3139e-07  2.8613e-07  0:01:50   50
 216707  2.8888e-04  1.5254e-04  2.0268e-04  1.1688e-04  2.8207e-07  7.3975e-05  4.4703e-05  0:01:50   49
 216708  9.8269e-04  1.0741e-04  1.5280e-04  9.5057e-05  3.6892e-09  5.0011e-05  3.4121e-05  0:01:49   48
 216709  6.7753e-04  9.2911e-05  1.1833e-04  7.0256e-05  1.2741e-09  3.4297e-05  2.5497e-05  0:01:48   47
 216710  4.8727e-04  7.6474e-05  8.9357e-05  5.5118e-05  5.6487e-10  2.3883e-05  1.8930e-05  0:01:45   46
 216711  3.1386e-04  5.5765e-05  6.6331e-05  4.1519e-05  3.6694e-10  1.6902e-05  1.4088e-05  0:01:43   45
 216712  2.9113e-04  3.7972e-05  4.8328e-05  3.1262e-05  2.7084e-10  1.2170e-05  1.0565e-05  0:01:40   44
 216713  2.5630e-04  2.6793e-05  3.5989e-05  2.3955e-05  1.8927e-10  8.9161e-06  8.0115e-06  0:01:37   43
 216714  2.1182e-04  1.9258e-05  2.7180e-05  1.8960e-05  1.4909e-10  6.6515e-06  6.1550e-06  0:01:34   42
 216715  1.6799e-04  1.4590e-05  2.1155e-05  1.5181e-05  1.2165e-10  5.0481e-06  4.7961e-06  0:01:32   41
 216716  1.4380e-04  1.0660e-05  1.6098e-05  1.2440e-05  1.0002e-10  3.9032e-06  3.7907e-06  0:01:30   40

  iter  continuity  x-velocity  y-velocity  z-velocity      energy           k     epsilon     time/iter
 216717  1.0273e-04  8.8193e-06  1.3301e-05  1.0369e-05  8.7387e-11  3.0677e-06  3.0383e-06  0:01:26   39
 216718  7.3148e-05  7.4762e-06  1.1210e-05  8.8260e-06  7.3863e-11  2.4494e-06  2.4677e-06  0:01:23   38
 216719  5.2941e-05  6.4197e-06  9.5469e-06  7.5758e-06  6.2951e-11  1.9849e-06  2.0301e-06  0:01:20   37
 216720  3.8928e-05  5.5669e-06  8.1997e-06  6.5419e-06  5.5930e-11  1.6301e-06  1.6901e-06  0:01:18   36
 216721  3.2477e-05  5.0360e-06  7.2921e-06  5.8537e-06  5.1261e-11  1.3563e-06  1.4209e-06  0:01:16   35
 216722  3.1001e-05  4.8379e-06  6.9631e-06  5.4065e-06  4.7250e-11  1.1401e-06  1.2052e-06  0:01:14   34
 216723  2.9241e-05  4.6274e-06  6.5609e-06  4.8811e-06  4.1939e-11  9.6748e-07  1.0300e-06  0:01:12   33
 216724  2.8732e-05  4.4365e-06  6.1832e-06  4.4391e-06  3.8141e-11  8.2775e-07  8.8629e-07  0:01:11   32
 216725  2.9123e-05  4.3238e-06  5.9273e-06  4.0962e-06  3.4260e-11  7.1354e-07  7.6707e-07  0:01:09   31
 216726  2.7429e-05  4.1229e-06  5.5757e-06  3.7476e-06  3.1032e-11  6.1881e-07  6.6724e-07  0:01:08   30
 216727  2.5758e-05  3.9323e-06  5.2678e-06  3.4514e-06  2.6588e-11  5.3969e-07  5.8267e-07  0:01:05   29

  iter  continuity  x-velocity  y-velocity  z-velocity      energy           k     epsilon     time/iter
 216728  2.0548e-05  3.5235e-06  4.6868e-06  3.0587e-06  2.5106e-11  4.7250e-07  5.1101e-07  0:01:02   28
 216729  2.0124e-05  3.3361e-06  4.4322e-06  2.8526e-06  2.2974e-11  4.1587e-07  4.4972e-07  0:01:01   27
 216730  1.8909e-05  3.1228e-06  4.1495e-06  2.6326e-06  1.8863e-11  3.6693e-07  3.9652e-07  0:00:58   26
 216731  1.2674e-05  2.6770e-06  3.5618e-06  2.2743e-06  1.8161e-11  3.2486e-07  3.5086e-07  0:00:56   25
 216732  1.2800e-05  2.4380e-06  3.2773e-06  2.0977e-06  1.4886e-11  2.8820e-07  3.1091e-07  0:00:55   24
!216733 solution is converged
 216733  8.7019e-06  2.0792e-06  2.8118e-06  1.8218e-06  1.3860e-11  2.5644e-07  2.7645e-07  0:00:53   23
Volume Averaged Variable at (3.500000 4.460000 1.200000) is 0.000000e+00
/file/read-macros dooropen.scm

/file/read-macros doorclose.scm

  step  flow-time  volflow_or  volflow_in volflow_cor     temp_p1    temp_max pressure_or pressure_dif pressure_cor mass_balance heat_balance      dpm_p2      dpm_or     dpm_cor
  5803  7.6103e+02 -2.0854e+00  2.1019e+00 -1.2957e-01  2.9414e+02  3.6915e+02  4.8420e+00  4.7744e+00  6.7562e-02  3.0888e-05 -9.2051e+00  0.0000e+00  9.7527e-13  8.9199e-11
Flow time = 761.03s, time step = 5803
497 more time steps

Updating solution at time level N... done.

Advancing DPM injections ....
number tracked = 532358, escaped = 17, aborted = 0, trapped = 33, evaporated = 0, incomplete = 0, incomplete_parallel = 0

  iter  continuity  x-velocity  y-velocity  z-velocity      energy           k     epsilon     time/iter
!216733 solution is converged
 216733  8.7019e-06  2.0792e-06  2.8118e-06  1.8218e-06  1.3860e-11  2.5644e-07  2.7645e-07  0:01:54   50
 216734  2.1342e-04  9.1728e-05  1.2456e-04  8.2026e-05  2.8241e-07  7.5057e-05  4.4353e-05  0:01:52   49
 216735  9.1568e-04  7.3686e-05  9.8946e-05  7.4270e-05  3.6787e-09  5.0794e-05  3.3659e-05  0:01:49   48
 216736  7.3877e-04  6.2975e-05  7.6532e-05  5.3531e-05  1.3096e-09  3.4861e-05  2.5038e-05  0:01:47   47
 216737  3.4281e-04  4.9340e-05  5.8986e-05  4.1486e-05  5.2328e-10  2.4290e-05  1.8505e-05  0:01:46   46
 216738  2.0554e-04  3.4718e-05  4.2293e-05  3.0697e-05  3.4992e-10  1.7193e-05  1.3693e-05  0:01:44   45
 216739  1.8284e-04  2.4158e-05  3.1563e-05  2.3839e-05  2.2329e-10  1.2372e-05  1.0195e-05  0:01:41   44
 216740  1.6032e-04  1.7364e-05  2.3889e-05  1.8802e-05  1.6637e-10  9.0553e-06  7.6644e-06  0:01:37   43
 216741  1.1891e-04  1.3571e-05  1.9130e-05  1.5382e-05  1.3021e-10  6.7380e-06  5.8299e-06  0:01:33   42
 216742  1.1315e-04  1.0103e-05  1.4749e-05  1.2438e-05  1.0322e-10  5.1030e-06  4.4930e-06  0:01:30   41
 216743  8.2281e-05  8.1906e-06  1.2145e-05  1.0344e-05  8.5686e-11  3.9283e-06  3.5104e-06  0:01:27   40

  iter  continuity  x-velocity  y-velocity  z-velocity      energy           k     epsilon     time/iter
 216744  6.0374e-05  6.8175e-06  1.0155e-05  8.7398e-06  7.0538e-11  3.0725e-06  2.7806e-06  0:01:25   39
 216745  4.4472e-05  5.7627e-06  8.5770e-06  7.4581e-06  5.8866e-11  2.4398e-06  2.2319e-06  0:01:23   38
 216746  3.3042e-05  4.9195e-06  7.2953e-06  6.3993e-06  5.0436e-11  1.9645e-06  1.8144e-06  0:01:23   37
 216747  2.9971e-05  4.2419e-06  6.1975e-06  5.5918e-06  4.2201e-11  1.6036e-06  1.4919e-06  0:01:20   36
 216748  2.0294e-05  3.6853e-06  5.3480e-06  4.8353e-06  3.8373e-11  1.3234e-06  1.2394e-06  0:01:17   35
 216749  2.0927e-05  3.4396e-06  4.9359e-06  4.4393e-06  3.5119e-11  1.1043e-06  1.0398e-06  0:01:15   34
 216750  1.9507e-05  3.1567e-06  4.5278e-06  3.9379e-06  3.0615e-11  9.3001e-07  8.7991e-07  0:01:13   33
 216751  2.0402e-05  2.9943e-06  4.2596e-06  3.5596e-06  2.6064e-11  7.8990e-07  7.5004e-07  0:01:11   32
 216752  1.6605e-05  2.6893e-06  3.8010e-06  3.1358e-06  2.4865e-11  6.7544e-07  6.4369e-07  0:01:08   31
 216753  1.9492e-05  2.6905e-06  3.7419e-06  2.9154e-06  2.1482e-11  5.8188e-07  5.5545e-07  0:01:05   30
 216754  1.5382e-05  2.4150e-06  3.3391e-06  2.5786e-06  2.0845e-11  5.0375e-07  4.8220e-07  0:01:03   29

  iter  continuity  x-velocity  y-velocity  z-velocity      energy           k     epsilon     time/iter
 216755  1.6439e-05  2.3976e-06  3.2301e-06  2.3804e-06  1.7119e-11  4.3855e-07  4.1979e-07  0:01:02   28
 216756  1.1798e-05  2.0875e-06  2.8218e-06  2.0928e-06  1.5727e-11  3.8328e-07  3.6743e-07  0:01:01   27
 216757  1.1174e-05  1.9179e-06  2.6231e-06  1.9254e-06  1.3075e-11  3.3632e-07  3.2257e-07  0:00:59   26
!216758 solution is converged
 216758  7.9428e-06  1.6522e-06  2.2684e-06  1.6860e-06  1.2295e-11  2.9605e-07  2.8413e-07  0:00:56   25
Volume Averaged Variable at (3.500000 4.460000 1.200000) is 0.000000e+00
/file/read-macros dooropen.scm

/file/read-macros doorclose.scm

  step  flow-time  volflow_or  volflow_in volflow_cor     temp_p1    temp_max pressure_or pressure_dif pressure_cor mass_balance heat_balance      dpm_p2      dpm_or     dpm_cor
  5804  7.6104e+02 -2.0834e+00  2.1019e+00 -1.3152e-01  2.9414e+02  3.6915e+02  4.8724e+00  4.8946e+00 -2.2117e-02  5.5954e-05 -1.6781e+01  0.0000e+00  9.7521e-13  8.9190e-11
Flow time = 761.04s, time step = 5804
496 more time steps

Updating solution at time level N... done.

Advancing DPM injections ....
number tracked = 532308, escaped = 20, aborted = 0, trapped = 38, evaporated = 0, incomplete = 0, incomplete_parallel = 0

  iter  continuity  x-velocity  y-velocity  z-velocity      energy           k     epsilon     time/iter
!216758 solution is converged
 216758  7.9428e-06  1.6522e-06  2.2684e-06  1.6860e-06  1.2295e-11  2.9605e-07  2.8413e-07  0:01:53   50
 216759  1.7189e-04  5.9382e-05  8.0989e-05  6.2816e-05  2.8258e-07  7.5642e-05  4.3651e-05  0:01:51   49
 216760  8.5718e-04  6.0878e-05  7.1087e-05  6.3241e-05  3.6468e-09  5.1211e-05  3.3043e-05  0:01:50   48
 216761  6.9898e-04  4.6190e-05  5.4904e-05  4.3560e-05  1.2718e-09  3.5152e-05  2.4535e-05  0:01:47   47
 216762  2.9310e-04  3.5858e-05  4.2210e-05  3.3617e-05  4.9616e-10  2.4487e-05  1.8087e-05  0:01:44   46
 216763  1.3013e-04  2.4992e-05  3.0971e-05  2.5564e-05  3.3046e-10  1.7322e-05  1.3334e-05  0:01:41   45
 216764  1.1560e-04  1.7928e-05  2.3690e-05  1.9925e-05  2.0909e-10  1.2451e-05  9.8797e-06  0:01:39   44
 216765  9.7915e-05  1.3511e-05  1.8724e-05  1.6246e-05  1.5419e-10  9.0968e-06  7.3823e-06  0:01:36   43
 216766  7.0899e-05  1.0841e-05  1.5316e-05  1.3437e-05  1.1985e-10  6.7547e-06  5.5767e-06  0:01:36   42
 216767  6.4634e-05  8.5495e-06  1.2400e-05  1.1161e-05  9.4975e-11  5.0997e-06  4.2640e-06  0:01:32   41
 216768  4.5627e-05  7.0750e-06  1.0348e-05  9.3997e-06  7.7263e-11  3.9115e-06  3.3027e-06  0:01:29   40

  iter  continuity  x-velocity  y-velocity  z-velocity      energy           k     epsilon     time/iter
 216769  3.4172e-05  5.9263e-06  8.6906e-06  7.9658e-06  6.3536e-11  3.0461e-06  2.5921e-06  0:01:26   39
 216770  3.1372e-05  4.9876e-06  7.2989e-06  6.7991e-06  5.1325e-11  2.4080e-06  2.0608e-06  0:01:23   38
 216771  2.1690e-05  4.2336e-06  6.1894e-06  5.8045e-06  4.3221e-11  1.9292e-06  1.6584e-06  0:01:20   37
 216772  1.6314e-05  3.6267e-06  5.2813e-06  4.9915e-06  3.6820e-11  1.5651e-06  1.3507e-06  0:01:18   36
 216773  1.4740e-05  3.2175e-06  4.6120e-06  4.3873e-06  3.1818e-11  1.2848e-06  1.1122e-06  0:01:16   35
 216774  1.3740e-05  2.8202e-06  4.0382e-06  3.8766e-06  2.6777e-11  1.0656e-06  9.2498e-07  0:01:14   34
 216775  1.0865e-05  2.4492e-06  3.5012e-06  3.3627e-06  2.3693e-11  8.9182e-07  7.7610e-07  0:01:12   33
 216776  1.3179e-05  2.2654e-06  3.2123e-06  3.0126e-06  2.1303e-11  7.5298e-07  6.5633e-07  0:01:11   32
 216777  1.2580e-05  2.0853e-06  2.9181e-06  2.6762e-06  1.7809e-11  6.4059e-07  5.5893e-07  0:01:08   31
!216778 solution is converged
 216778  9.6544e-06  1.8257e-06  2.5531e-06  2.3413e-06  1.6110e-11  5.4839e-07  4.7904e-07  0:01:07   30
Volume Averaged Variable at (3.500000 4.460000 1.200000) is 0.000000e+00
/file/read-macros dooropen.scm

/file/read-macros doorclose.scm

  step  flow-time  volflow_or  volflow_in volflow_cor     temp_p1    temp_max pressure_or pressure_dif pressure_cor mass_balance heat_balance      dpm_p2      dpm_or     dpm_cor
  5805  7.6105e+02 -2.0825e+00  2.1019e+00 -1.3248e-01  2.9414e+02  3.6916e+02  4.8870e+00  4.9586e+00 -7.1601e-02  6.9064e-05 -2.0331e+01  0.0000e+00  9.7517e-13  8.9181e-11
Flow time = 761.05s, time step = 5805
495 more time steps

Updating solution at time level N... done.

Advancing DPM injections ....
number tracked = 532250, escaped = 11, aborted = 0, trapped = 30, evaporated = 0, incomplete = 0, incomplete_parallel = 0

  iter  continuity  x-velocity  y-velocity  z-velocity      energy           k     epsilon     time/iter
!216778 solution is converged
 216778  9.6544e-06  1.8257e-06  2.5531e-06  2.3413e-06  1.6110e-11  5.4839e-07  4.7904e-07  0:01:51   50
 216779  1.4994e-04  4.4939e-05  6.0447e-05  5.3111e-05  2.8264e-07  7.5820e-05  4.2976e-05  0:01:49   49
 216780  8.4472e-04  5.8323e-05  5.9578e-05  5.8351e-05  3.6460e-09  5.1317e-05  3.2392e-05  0:01:46   48
 216781  7.1014e-04  3.9613e-05  4.6602e-05  3.8625e-05  1.2798e-09  3.5209e-05  2.3958e-05  0:01:43   47
 216782  2.6993e-04  2.9942e-05  3.5229e-05  2.9558e-05  4.9068e-10  2.4509e-05  1.7588e-05  0:01:40   46
 216783  9.5500e-05  2.0567e-05  2.5992e-05  2.2795e-05  3.2146e-10  1.7319e-05  1.2910e-05  0:01:40   45
 216784  7.4424e-05  1.5118e-05  2.0375e-05  1.8284e-05  2.0445e-10  1.2431e-05  9.5176e-06  0:01:39   44
 216785  5.8829e-05  1.1881e-05  1.6468e-05  1.5093e-05  1.4881e-10  9.0655e-06  7.0719e-06  0:01:35   43
 216786  4.0307e-05  9.7037e-06  1.3606e-05  1.2553e-05  1.1536e-10  6.7170e-06  5.3096e-06  0:01:33   42
 216787  3.8274e-05  7.8894e-06  1.1233e-05  1.0473e-05  9.1023e-11  5.0577e-06  4.0347e-06  0:01:31   41
 216788  2.7180e-05  6.5524e-06  9.3871e-06  8.8177e-06  7.3184e-11  3.8676e-06  3.1060e-06  0:01:29   40

  iter  continuity  x-velocity  y-velocity  z-velocity      energy           k     epsilon     time/iter
 216789  2.2071e-05  5.4889e-06  7.8878e-06  7.4711e-06  5.8811e-11  3.0026e-06  2.4228e-06  0:01:26   39
 216790  1.7101e-05  4.6203e-06  6.6521e-06  6.3509e-06  4.9190e-11  2.3642e-06  1.9147e-06  0:01:24   38
 216791  1.8022e-05  3.9591e-06  5.6538e-06  5.4662e-06  4.0148e-11  1.8872e-06  1.5320e-06  0:01:23   37
 216792  1.2291e-05  3.3519e-06  4.7929e-06  4.6786e-06  3.3460e-11  1.5248e-06  1.2399e-06  0:01:21   36
!216793 solution is converged
 216793  9.5449e-06  2.8608e-06  4.0907e-06  4.0293e-06  2.8489e-11  1.2460e-06  1.0143e-06  0:01:18   35
Volume Averaged Variable at (3.500000 4.460000 1.200000) is 0.000000e+00
/file/read-macros dooropen.scm

/file/read-macros doorclose.scm

  step  flow-time  volflow_or  volflow_in volflow_cor     temp_p1    temp_max pressure_or pressure_dif pressure_cor mass_balance heat_balance      dpm_p2      dpm_or     dpm_cor
  5806  7.6106e+02 -2.0820e+00  2.1019e+00 -1.3294e-01  2.9414e+02  3.6916e+02  4.8930e+00  4.9904e+00 -9.7331e-02  7.1196e-05 -2.1870e+01  0.0000e+00  9.7511e-13  8.9173e-11
Flow time = 761.0599999999999s, time step = 5806
494 more time steps

Updating solution at time level N... done.

Advancing DPM injections ....
number tracked = 532209, escaped = 22, aborted = 0, trapped = 28, evaporated = 0, incomplete = 0, incomplete_parallel = 0

  iter  continuity  x-velocity  y-velocity  z-velocity      energy           k     epsilon     time/iter
!216793 solution is converged
 216793  9.5449e-06  2.8608e-06  4.0907e-06  4.0293e-06  2.8489e-11  1.2460e-06  1.0143e-06  0:01:51   50
 216794  1.3762e-04  3.9093e-05  5.2194e-05  4.8233e-05  2.8263e-07  7.5708e-05  4.2300e-05  0:01:50   49
 216795  8.4849e-04  5.8678e-05  5.5445e-05  5.5984e-05  3.6493e-09  5.1211e-05  3.1692e-05  0:01:49   48
 216796  7.2124e-04  3.7399e-05  4.3675e-05  3.6855e-05  1.2901e-09  3.5108e-05  2.3315e-05  0:01:46   47
 216797  2.5126e-04  2.6774e-05  3.2035e-05  2.7187e-05  4.9077e-10  2.4414e-05  1.7031e-05  0:01:42   46
 216798  8.2168e-05  1.8481e-05  2.3759e-05  2.0959e-05  3.0930e-10  1.7233e-05  1.2440e-05  0:01:40   45
 216799  6.5812e-05  1.3757e-05  1.8633e-05  1.7245e-05  2.0666e-10  1.2353e-05  9.1292e-06  0:01:39   44
 216800  3.6510e-05  1.1212e-05  1.5339e-05  1.4297e-05  1.4669e-10  8.9933e-06  6.7542e-06  0:01:37   43
 216801  3.2703e-05  9.0929e-06  1.2635e-05  1.1937e-05  1.1339e-10  6.6523e-06  5.0507e-06  0:01:33   42
 216802  2.2095e-05  7.5294e-06  1.0515e-05  1.0005e-05  8.9349e-11  4.9980e-06  3.8234e-06  0:01:30   41
 216803  1.8273e-05  6.2756e-06  8.8010e-06  8.4357e-06  7.1940e-11  3.8132e-06  2.9328e-06  0:01:29   40

  iter  continuity  x-velocity  y-velocity  z-velocity      energy           k     epsilon     time/iter
 216804  1.8704e-05  5.2856e-06  7.3956e-06  7.1475e-06  5.7896e-11  2.9528e-06  2.2795e-06  0:01:25   39
 216805  1.3012e-05  4.4318e-06  6.2210e-06  6.0655e-06  4.7220e-11  2.3184e-06  1.7945e-06  0:01:24   38
 216806  1.0494e-05  3.7509e-06  5.2716e-06  5.1877e-06  3.8767e-11  1.8448e-06  1.4302e-06  0:01:22   37
!216807 solution is converged
 216807  8.9982e-06  3.1896e-06  4.4873e-06  4.4547e-06  3.2505e-11  1.4859e-06  1.1533e-06  0:01:20   36
Volume Averaged Variable at (3.500000 4.460000 1.200000) is 0.000000e+00
/file/read-macros dooropen.scm

/file/read-macros doorclose.scm

  step  flow-time  volflow_or  volflow_in volflow_cor     temp_p1    temp_max pressure_or pressure_dif pressure_cor mass_balance heat_balance      dpm_p2      dpm_or     dpm_cor
  5807  7.6107e+02 -2.0818e+00  2.1019e+00 -1.3319e-01  2.9414e+02  3.6916e+02  4.8926e+00  5.0008e+00 -1.0821e-01  7.4248e-05 -2.2590e+01  0.0000e+00  9.7493e-13  8.9166e-11
Flow time = 761.0700000000001s, time step = 5807
493 more time steps

Updating solution at time level N... done.

Advancing DPM injections ....
number tracked = 532159, escaped = 12, aborted = 0, trapped = 38, evaporated = 0, incomplete = 0, incomplete_parallel = 0

  iter  continuity  x-velocity  y-velocity  z-velocity      energy           k     epsilon     time/iter
!216807 solution is converged
 216807  8.9982e-06  3.1896e-06  4.4873e-06  4.4547e-06  3.2505e-11  1.4859e-06  1.1533e-06  0:01:51   50
 216808  1.3210e-04  3.6857e-05  4.8670e-05  4.5712e-05  2.8260e-07  7.5447e-05  4.1579e-05  0:01:48   49
 216809  8.3606e-04  5.8027e-05  5.3138e-05  5.4155e-05  3.6315e-09  5.0997e-05  3.0957e-05  0:01:45   48
 216810  6.9147e-04  3.4741e-05  4.1162e-05  3.4922e-05  1.2671e-09  3.4931e-05  2.2650e-05  0:01:42   47
 216811  2.5847e-04  2.5588e-05  3.0854e-05  2.6188e-05  4.8342e-10  2.4267e-05  1.6465e-05  0:01:40   46
 216812  8.9948e-05  1.7835e-05  2.2615e-05  2.0159e-05  3.1206e-10  1.7107e-05  1.1974e-05  0:01:38   45
 216813  6.3587e-05  1.3286e-05  1.7659e-05  1.6570e-05  2.0833e-10  1.2245e-05  8.7530e-06  0:01:35   44
 216814  3.4168e-05  1.0813e-05  1.4531e-05  1.3715e-05  1.4582e-10  8.9003e-06  6.4527e-06  0:01:33   43
 216815  2.9369e-05  8.7907e-06  1.1986e-05  1.1452e-05  1.1262e-10  6.5711e-06  4.8091e-06  0:01:30   42
 216816  1.9212e-05  7.2749e-06  9.9683e-06  9.5879e-06  8.8413e-11  4.9266e-06  3.6281e-06  0:01:28   41
 216817  1.5795e-05  6.0613e-06  8.3435e-06  8.0733e-06  7.0988e-11  3.7500e-06  2.7731e-06  0:01:27   40

  iter  continuity  x-velocity  y-velocity  z-velocity      energy           k     epsilon     time/iter
 216818  1.5857e-05  5.0983e-06  7.0160e-06  6.8296e-06  5.7122e-11  2.8966e-06  2.1477e-06  0:01:24   39
 216819  1.1187e-05  4.2681e-06  5.8957e-06  5.7909e-06  4.6543e-11  2.2685e-06  1.6850e-06  0:01:21   38
!216820 solution is converged
 216820  9.3420e-06  3.6040e-06  4.9898e-06  4.9467e-06  3.8142e-11  1.8002e-06  1.3385e-06  0:01:19   37
Volume Averaged Variable at (3.500000 4.460000 1.200000) is 0.000000e+00
/file/read-macros dooropen.scm

/file/read-macros doorclose.scm

  step  flow-time  volflow_or  volflow_in volflow_cor     temp_p1    temp_max pressure_or pressure_dif pressure_cor mass_balance heat_balance      dpm_p2      dpm_or     dpm_cor
  5808  7.6108e+02 -2.0816e+00  2.1019e+00 -1.3333e-01  2.9414e+02  3.6916e+02  4.8914e+00  5.0062e+00 -1.1473e-01  7.2647e-05 -2.2841e+01  0.0000e+00  9.7486e-13  8.9158e-11
Flow time = 761.08s, time step = 5808
492 more time steps

Updating solution at time level N... done.

Advancing DPM injections ....
number tracked = 532109, escaped = 11, aborted = 0, trapped = 42, evaporated = 0, incomplete = 0, incomplete_parallel = 0

  iter  continuity  x-velocity  y-velocity  z-velocity      energy           k     epsilon     time/iter
!216820 solution is converged
 216820  9.3420e-06  3.6040e-06  4.9898e-06  4.9467e-06  3.8142e-11  1.8002e-06  1.3385e-06  0:01:47   50
 216821  1.2806e-04  3.5594e-05  4.6510e-05  4.3925e-05  2.8256e-07  7.5096e-05  4.0843e-05  0:01:48   49
 216822  8.4296e-04  5.8471e-05  5.2095e-05  5.3162e-05  3.6314e-09  5.0717e-05  3.0215e-05  0:01:48   48
 216823  7.0461e-04  3.4267e-05  4.0395e-05  3.4038e-05  1.2794e-09  3.4707e-05  2.1987e-05  0:01:44   47
 216824  2.5820e-04  2.5060e-05  2.9872e-05  2.5286e-05  4.8479e-10  2.4084e-05  1.5907e-05  0:01:41   46
 216825  8.3645e-05  1.7109e-05  2.1598e-05  1.9419e-05  3.1317e-10  1.6956e-05  1.1521e-05  0:01:38   45
 216826  5.7325e-05  1.2874e-05  1.6914e-05  1.6036e-05  2.0054e-10  1.2119e-05  8.3901e-06  0:01:36   44
 216827  3.4584e-05  1.0422e-05  1.3874e-05  1.3260e-05  1.4412e-10  8.7941e-06  6.1637e-06  0:01:34   43
 216828  2.0893e-05  8.5823e-06  1.1482e-05  1.1049e-05  1.1159e-10  6.4802e-06  4.5780e-06  0:01:32   42
 216829  1.9430e-05  7.0977e-06  9.5527e-06  9.2762e-06  8.7728e-11  4.8490e-06  3.4430e-06  0:01:29   41
 216830  1.3427e-05  5.8954e-06  7.9676e-06  7.7932e-06  6.9997e-11  3.6828e-06  2.6238e-06  0:01:27   40

  iter  continuity  x-velocity  y-velocity  z-velocity      energy           k     epsilon     time/iter
 216831  1.1548e-05  4.9328e-06  6.6905e-06  6.5847e-06  5.6614e-11  2.8380e-06  2.0264e-06  0:01:26   39
 216832  1.1550e-05  4.1615e-06  5.6403e-06  5.6051e-06  4.5953e-11  2.2174e-06  1.5855e-06  0:01:24   38
!216833 solution is converged
 216833  8.3984e-06  3.4920e-06  4.7516e-06  4.7634e-06  3.7788e-11  1.7551e-06  1.2561e-06  0:01:24   37
Volume Averaged Variable at (3.500000 4.460000 1.200000) is 0.000000e+00
/file/read-macros dooropen.scm

/file/read-macros doorclose.scm

  step  flow-time  volflow_or  volflow_in volflow_cor     temp_p1    temp_max pressure_or pressure_dif pressure_cor mass_balance heat_balance      dpm_p2      dpm_or     dpm_cor
  5809  7.6109e+02 -2.0816e+00  2.1019e+00 -1.3340e-01  2.9414e+02  3.6917e+02  4.8898e+00  5.0080e+00 -1.1821e-01  7.2739e-05 -2.2860e+01  0.0000e+00  9.7484e-13  8.9148e-11
Flow time = 761.09s, time step = 5809
491 more time steps

Updating solution at time level N... done.

Advancing DPM injections ....
number tracked = 532056, escaped = 15, aborted = 0, trapped = 30, evaporated = 0, incomplete = 0, incomplete_parallel = 0

  iter  continuity  x-velocity  y-velocity  z-velocity      energy           k     epsilon     time/iter
!216833 solution is converged
 216833  8.3984e-06  3.4920e-06  4.7516e-06  4.7634e-06  3.7788e-11  1.7551e-06  1.2561e-06  0:01:54   50
 216834  1.2556e-04  3.4791e-05  4.4966e-05  4.2631e-05  2.8250e-07  7.4691e-05  4.0067e-05  0:01:50   49
 216835  8.4731e-04  5.8438e-05  5.0969e-05  5.2406e-05  3.6288e-09  5.0397e-05  2.9470e-05  0:01:48   48
 216836  7.3597e-04  3.4923e-05  4.0144e-05  3.3464e-05  1.2815e-09  3.4451e-05  2.1341e-05  0:01:45   47
 216837  2.4968e-04  2.4367e-05  2.8888e-05  2.4452e-05  4.8947e-10  2.3877e-05  1.5374e-05  0:01:42   46
 216838  8.6193e-05  1.6612e-05  2.0811e-05  1.8995e-05  3.0904e-10  1.6787e-05  1.1092e-05  0:01:39   45
 216839  6.2578e-05  1.2565e-05  1.6285e-05  1.5745e-05  2.0096e-10  1.1979e-05  8.0503e-06  0:01:36   44
 216840  3.4485e-05  1.0195e-05  1.3356e-05  1.2951e-05  1.4278e-10  8.6781e-06  5.8954e-06  0:01:33   43
 216841  2.0193e-05  8.3882e-06  1.1046e-05  1.0776e-05  1.1084e-10  6.3829e-06  4.3661e-06  0:01:31   42
 216842  1.8770e-05  6.9413e-06  9.1902e-06  9.0063e-06  8.7212e-11  4.7667e-06  3.2748e-06  0:01:29   41
 216843  1.2647e-05  5.7605e-06  7.6569e-06  7.5598e-06  6.9541e-11  3.6128e-06  2.4891e-06  0:01:26   40

  iter  continuity  x-velocity  y-velocity  z-velocity      energy           k     epsilon     time/iter
 216844  1.0701e-05  4.8141e-06  6.4215e-06  6.3822e-06  5.6209e-11  2.7779e-06  1.9176e-06  0:01:24   39
 216845  1.0597e-05  4.0539e-06  5.4112e-06  5.4142e-06  4.5527e-11  2.1656e-06  1.4968e-06  0:01:21   38
!216846 solution is converged
 216846  7.7280e-06  3.3984e-06  4.5546e-06  4.5970e-06  3.7500e-11  1.7100e-06  1.1831e-06  0:01:19   37
Volume Averaged Variable at (3.500000 4.460000 1.200000) is 0.000000e+00
/file/read-macros controlruntime.scm
Loading "././controlruntime.scm"
Done.

> 
/file/read-macros dooropen.scm

/file/read-macros doorclose.scm

,  step  flow-time  volflow_or  volflow_in volflow_cor     temp_p1    temp_max pressure_or pressure_dif pressure_cor mass_balance heat_balance      dpm_p2      dpm_or     dpm_cor
  5810  7.6110e+02 -2.0815e+00  2.1019e+00 -1.3343e-01  2.9414e+02  3.6917e+02  4.8880e+00  5.0080e+00 -1.2003e-01  7.4093e-05 -2.2773e+01  0.0000e+00  9.7484e-13  8.9141e-11
Flow time = 761.1s, time step = 5810
490 more time steps

Updating solution at time level N... done.

Advancing DPM injections ....
number tracked = 532011, escaped = 19, aborted = 0, trapped = 25, evaporated = 0, incomplete = 0, incomplete_parallel = 0

  iter  continuity  x-velocity  y-velocity  z-velocity      energy           k     epsilon     time/iter
!216846 solution is converged
 216846  7.7280e-06  3.3984e-06  4.5546e-06  4.5970e-06  3.7500e-11  1.7100e-06  1.1831e-06  0:01:47   50
 216847  1.2366e-04  3.4164e-05  4.3741e-05  4.1604e-05  2.8245e-07  7.4255e-05  3.9310e-05  0:01:46   49
 216848  8.5062e-04  5.8498e-05  5.0152e-05  5.1744e-05  3.6233e-09  5.0055e-05  2.8757e-05  0:01:45   48
 216849  7.1462e-04  3.3689e-05  3.8716e-05  3.2744e-05  1.2801e-09  3.4179e-05  2.0732e-05  0:01:42   47
 216850  2.5738e-04  2.4330e-05  2.8360e-05  2.4109e-05  4.8225e-10  2.3660e-05  1.4875e-05  0:01:39   46
 216851  8.1326e-05  1.6402e-05  2.0376e-05  1.8358e-05  3.1057e-10  1.6611e-05  1.0694e-05  0:01:37   45
 216852  5.5131e-05  1.2359e-05  1.5895e-05  1.5180e-05  1.9847e-10  1.1835e-05  7.7357e-06  0:01:36   44
 216853  3.2662e-05  1.0003e-05  1.3000e-05  1.2560e-05  1.4193e-10  8.5589e-06  5.6485e-06  0:01:33   43
 216854  1.9301e-05  8.2249e-06  1.0736e-05  1.0446e-05  1.1002e-10  6.2835e-06  4.1719e-06  0:01:31   42
 216855  1.7742e-05  6.8027e-06  8.8965e-06  8.7503e-06  8.6587e-11  4.6831e-06  3.1213e-06  0:01:28   41
 216856  1.2055e-05  5.6419e-06  7.4052e-06  7.3377e-06  6.8998e-11  3.5420e-06  2.3668e-06  0:01:26   40

  iter  continuity  x-velocity  y-velocity  z-velocity      energy           k     epsilon     time/iter
 216857  1.0347e-05  4.7106e-06  6.2033e-06  6.1872e-06  5.5716e-11  2.7175e-06  1.8193e-06  0:01:24   39
!216858 solution is converged
 216858  9.9874e-06  3.9607e-06  5.2160e-06  5.2448e-06  4.5179e-11  2.1137e-06  1.4169e-06  0:01:21   38
Volume Averaged Variable at (3.500000 4.460000 1.200000) is 0.000000e+00
/file/read-macros dooropen.scm

/file/read-macros doorclose.scm

  step  flow-time  volflow_or  volflow_in volflow_cor     temp_p1    temp_max pressure_or pressure_dif pressure_cor mass_balance heat_balance      dpm_p2      dpm_or     dpm_cor
  5811  7.6111e+02 -2.0815e+00  2.1019e+00 -1.3345e-01  2.9414e+02  3.6917e+02  4.8868e+00  5.0079e+00 -1.2109e-01  7.1842e-05 -2.2611e+01  0.0000e+00  9.7476e-13  8.9134e-11
Flow time = 761.11s, time step = 5811
489 more time steps

Updating solution at time level N... done.

Advancing DPM injections ....
number tracked = 531967, escaped = 17, aborted = 0, trapped = 30, evaporated = 0, incomplete = 0, incomplete_parallel = 0

  iter  continuity  x-velocity  y-velocity  z-velocity      energy           k     epsilon     time/iter
!216858 solution is converged
 216858  9.9874e-06  3.9607e-06  5.2160e-06  5.2448e-06  4.5179e-11  2.1137e-06  1.4169e-06  0:01:47   50
 216859  1.2135e-04  3.3628e-05  4.2725e-05  4.0757e-05  2.8239e-07  7.3809e-05  3.8617e-05  0:01:46   49
 216860  8.4402e-04  5.7828e-05  4.9416e-05  5.0908e-05  3.6195e-09  4.9709e-05  2.8107e-05  0:01:44   48
 216861  7.2683e-04  3.4135e-05  3.8652e-05  3.2533e-05  1.2817e-09  3.3904e-05  2.0178e-05  0:01:41   47
 216862  2.4408e-04  2.3783e-05  2.7606e-05  2.3458e-05  4.8709e-10  2.3441e-05  1.4425e-05  0:01:38   46
 216863  7.9672e-05  1.6118e-05  1.9857e-05  1.8143e-05  3.0571e-10  1.6435e-05  1.0337e-05  0:01:37   45
 216864  6.0177e-05  1.2121e-05  1.5400e-05  1.4960e-05  2.0174e-10  1.1692e-05  7.4558e-06  0:01:34   44
 216865  3.5934e-05  9.8374e-06  1.2576e-05  1.2378e-05  1.4241e-10  8.4413e-06  5.4297e-06  0:01:32   43
 216866  2.0382e-05  8.0850e-06  1.0381e-05  1.0280e-05  1.0967e-10  6.1864e-06  4.0010e-06  0:01:30   42
 216867  1.4959e-05  6.6800e-06  8.6300e-06  8.5702e-06  8.6529e-11  4.6019e-06  2.9868e-06  0:01:28   41
 216868  1.3038e-05  5.5583e-06  7.1985e-06  7.1743e-06  6.8907e-11  3.4739e-06  2.2605e-06  0:01:25   40

  iter  continuity  x-velocity  y-velocity  z-velocity      energy           k     epsilon     time/iter
!216869 solution is converged
 216869  9.5081e-06  4.6238e-06  6.0095e-06  6.0342e-06  5.5706e-11  2.6599e-06  1.7342e-06  0:01:24   39
Volume Averaged Variable at (3.500000 4.460000 1.200000) is 0.000000e+00
/file/read-macros dooropen.scm

/file/read-macros doorclose.scm

  step  flow-time  volflow_or  volflow_in volflow_cor     temp_p1    temp_max pressure_or pressure_dif pressure_cor mass_balance heat_balance      dpm_p2      dpm_or     dpm_cor
  5812  7.6112e+02 -2.0815e+00  2.1019e+00 -1.3346e-01  2.9414e+02  3.6918e+02  4.8855e+00  5.0073e+00 -1.2183e-01  7.6549e-05 -2.2441e+01  0.0000e+00  9.7474e-13  8.9126e-11
Flow time = 761.12s, time step = 5812
488 more time steps

Updating solution at time level N... done.

Advancing DPM injections ....
number tracked = 531920, escaped = 20, aborted = 0, trapped = 35, evaporated = 0, incomplete = 0, incomplete_parallel = 0

  iter  continuity  x-velocity  y-velocity  z-velocity      energy           k     epsilon     time/iter
!216869 solution is converged
 216869  9.5081e-06  4.6238e-06  6.0095e-06  6.0342e-06  5.5706e-11  2.6599e-06  1.7342e-06  0:01:47   50
 216870  1.1969e-04  3.3197e-05  4.1917e-05  4.0078e-05  2.8232e-07  7.3365e-05  3.7988e-05  0:01:45   49
 216871  8.2911e-04  5.6734e-05  4.8510e-05  5.0000e-05  3.6113e-09  4.9365e-05  2.7524e-05  0:01:44   48
 216872  7.0319e-04  3.3180e-05  3.7683e-05  3.1765e-05  1.2687e-09  3.3634e-05  1.9686e-05  0:01:45   47
 216873  2.4365e-04  2.3467e-05  2.7197e-05  2.3141e-05  4.8280e-10  2.3227e-05  1.4027e-05  0:01:43   46
 216874  8.0289e-05  1.5918e-05  1.9455e-05  1.7881e-05  3.0750e-10  1.6263e-05  1.0022e-05  0:01:40   45
 216875  5.9752e-05  1.1957e-05  1.5113e-05  1.4707e-05  2.0124e-10  1.1553e-05  7.2103e-06  0:01:36   44
 216876  3.3545e-05  9.7008e-06  1.2344e-05  1.2122e-05  1.4255e-10  8.3282e-06  5.2386e-06  0:01:33   43
 216877  1.9449e-05  7.9670e-06  1.0183e-05  1.0058e-05  1.0996e-10  6.0935e-06  3.8518e-06  0:01:32   42
 216878  1.5517e-05  6.5846e-06  8.4463e-06  8.3856e-06  8.6322e-11  4.5252e-06  2.8698e-06  0:01:31   41
 216879  1.1081e-05  5.4555e-06  7.0198e-06  7.0217e-06  6.9105e-11  3.4098e-06  2.1679e-06  0:01:28   40

  iter  continuity  x-velocity  y-velocity  z-velocity      energy           k     epsilon     time/iter
 216880  1.0835e-05  4.5566e-06  5.8645e-06  5.9171e-06  5.5461e-11  2.6063e-06  1.6605e-06  0:01:25   39
!216881 solution is converged
 216881  7.9885e-06  3.8014e-06  4.9092e-06  4.9919e-06  4.5412e-11  2.0193e-06  1.2891e-06  0:01:23   38
Volume Averaged Variable at (3.500000 4.460000 1.200000) is 0.000000e+00
/file/read-macros dooropen.scm

/file/read-macros doorclose.scm

  step  flow-time  volflow_or  volflow_in volflow_cor     temp_p1    temp_max pressure_or pressure_dif pressure_cor mass_balance heat_balance      dpm_p2      dpm_or     dpm_cor
  5813  7.6113e+02 -2.0815e+00  2.1019e+00 -1.3346e-01  2.9414e+02  3.6918e+02  4.8845e+00  5.0066e+00 -1.2203e-01  7.5069e-05 -2.2248e+01  0.0000e+00  9.7464e-13  8.9117e-11
Flow time = 761.13s, time step = 5813
487 more time steps

Updating solution at time level N... done.

Advancing DPM injections ....
number tracked = 531865, escaped = 24, aborted = 0, trapped = 27, evaporated = 0, incomplete = 0, incomplete_parallel = 0

  iter  continuity  x-velocity  y-velocity  z-velocity      energy           k     epsilon     time/iter
!216881 solution is converged
 216881  7.9885e-06  3.8014e-06  4.9092e-06  4.9919e-06  4.5412e-11  2.0193e-06  1.2891e-06  0:01:49   50
 216882  1.1936e-04  3.2844e-05  4.1220e-05  3.9536e-05  2.8226e-07  7.2920e-05  3.7333e-05  0:01:47   49
 216883  8.5257e-04  5.7830e-05  4.8496e-05  5.0327e-05  3.6164e-09  4.9018e-05  2.6950e-05  0:01:44   48
 216884  7.3321e-04  3.3819e-05  3.7884e-05  3.1761e-05  1.2837e-09  3.3361e-05  1.9213e-05  0:01:41   47
 216885  2.4884e-04  2.3626e-05  2.6933e-05  2.2957e-05  4.8579e-10  2.3008e-05  1.3651e-05  0:01:39   46
 216886  7.8403e-05  1.5574e-05  1.8959e-05  1.7556e-05  3.0962e-10  1.6088e-05  9.7274e-06  0:01:37   45
 216887  5.4629e-05  1.1814e-05  1.4828e-05  1.4441e-05  1.9622e-10  1.1411e-05  6.9806e-06  0:01:35   44
 216888  3.0457e-05  9.6007e-06  1.2111e-05  1.1907e-05  1.4069e-10  8.2130e-06  5.0600e-06  0:01:34   43
 216889  1.8184e-05  7.8822e-06  9.9817e-06  9.8723e-06  1.0882e-10  5.9988e-06  3.7124e-06  0:01:32   42
 216890  1.5087e-05  6.5035e-06  8.2636e-06  8.2247e-06  8.5579e-11  4.4469e-06  2.7605e-06  0:01:31   41
 216891  1.0793e-05  5.3847e-06  6.8630e-06  6.8807e-06  6.8431e-11  3.3447e-06  2.0815e-06  0:01:29   40

  iter  continuity  x-velocity  y-velocity  z-velocity      energy           k     epsilon     time/iter
 216892  1.0265e-05  4.4889e-06  5.7289e-06  5.7874e-06  5.4912e-11  2.5517e-06  1.5916e-06  0:01:25   39
!216893 solution is converged
 216893  7.7402e-06  3.7432e-06  4.7926e-06  4.8790e-06  4.4819e-11  1.9733e-06  1.2337e-06  0:01:23   38
Volume Averaged Variable at (3.500000 4.460000 1.200000) is 0.000000e+00
/file/read-macros dooropen.scm

/file/read-macros doorclose.scm

  step  flow-time  volflow_or  volflow_in volflow_cor     temp_p1    temp_max pressure_or pressure_dif pressure_cor mass_balance heat_balance      dpm_p2      dpm_or     dpm_cor
  5814  7.6114e+02 -2.0815e+00  2.1019e+00 -1.3346e-01  2.9414e+02  3.6918e+02  4.8838e+00  5.0062e+00 -1.2239e-01  7.4242e-05 -2.2052e+01  0.0000e+00  9.7447e-13  8.9109e-11
Flow time = 761.14s, time step = 5814
486 more time steps

Updating solution at time level N... done.

Advancing DPM injections ....
number tracked = 531814, escaped = 21, aborted = 0, trapped = 29, evaporated = 0, incomplete = 0, incomplete_parallel = 0

  iter  continuity  x-velocity  y-velocity  z-velocity      energy           k     epsilon     time/iter
!216893 solution is converged
 216893  7.7402e-06  3.7432e-06  4.7926e-06  4.8790e-06  4.4819e-11  1.9733e-06  1.2337e-06  0:01:49   50
 216894  1.1847e-04  3.2521e-05  4.0620e-05  3.9041e-05  2.8221e-07  7.2487e-05  3.6760e-05  0:01:48   49
 216895  8.3633e-04  5.6925e-05  4.7790e-05  4.9507e-05  3.6167e-09  4.8681e-05  2.6442e-05  0:01:45   48
 216896  7.2380e-04  3.3622e-05  3.7528e-05  3.1402e-05  1.2814e-09  3.3097e-05  1.8793e-05  0:01:42   47
 216897  2.4837e-04  2.3367e-05  2.6617e-05  2.2722e-05  4.8255e-10  2.2799e-05  1.3316e-05  0:01:40   46
 216898  8.4803e-05  1.5589e-05  1.8740e-05  1.7401e-05  3.1001e-10  1.5921e-05  9.4649e-06  0:01:37   45
 216899  5.9037e-05  1.1719e-05  1.4535e-05  1.4350e-05  1.9843e-10  1.1277e-05  6.7766e-06  0:01:35   44
 216900  3.5080e-05  9.4619e-06  1.1833e-05  1.1827e-05  1.4095e-10  8.1033e-06  4.9018e-06  0:01:32   43
 216901  2.0660e-05  7.7623e-06  9.7516e-06  9.7813e-06  1.0850e-10  5.9089e-06  3.5893e-06  0:01:30   42
 216902  1.4813e-05  6.4112e-06  8.0783e-06  8.1247e-06  8.5189e-11  4.3726e-06  2.6639e-06  0:01:27   41
 216903  1.0741e-05  5.3079e-06  6.7103e-06  6.7853e-06  6.8131e-11  3.2830e-06  2.0052e-06  0:01:25   40

  iter  continuity  x-velocity  y-velocity  z-velocity      energy           k     epsilon     time/iter
!216904 solution is converged
 216904  9.8389e-06  4.4253e-06  5.6064e-06  5.6884e-06  5.4652e-11  2.5001e-06  1.5308e-06  0:01:23   39
[...]
 221721  5.3268e-05  1.3244e-05  1.4900e-05  1.5956e-05  2.1323e-10  1.1034e-05  4.9444e-06  0:01:40   45
 221722  3.5335e-05  1.0146e-05  1.1507e-05  1.3019e-05  1.4501e-10  7.5412e-06  3.4191e-06  0:01:38   44
 221723  2.0729e-05  8.1955e-06  9.2630e-06  1.0641e-05  1.0678e-10  5.2204e-06  2.4062e-06  0:01:36   43
 221724  1.3616e-05  6.6958e-06  7.5141e-06  8.7328e-06  8.2383e-11  3.6631e-06  1.7280e-06  0:01:32   42
 221725  1.0347e-05  5.5066e-06  6.1285e-06  7.1878e-06  6.4274e-11  2.6072e-06  1.2689e-06  0:01:30   41
!221726 solution is converged
 221726  8.2701e-06  4.5475e-06  5.0183e-06  5.9390e-06  5.0682e-11  1.8834e-06  9.5322e-07  0:01:28   40
Volume Averaged Variable at (3.500000 4.460000 1.200000) is 0.000000e+00
/file/read-macros dooropen.scm

/file/read-macros doorclose.scm

  step  flow-time  volflow_or  volflow_in volflow_cor     temp_p1    temp_max pressure_or pressure_dif pressure_cor mass_balance heat_balance      dpm_p2      dpm_or     dpm_cor
  6295  7.6595e+02 -2.0816e+00  2.1019e+00 -1.3340e-01  2.9414e+02  3.6994e+02  4.8819e+00  5.0008e+00 -1.1887e-01 -1.0235e-04  3.0667e+01  0.0000e+00  9.4492e-13  9.2532e-11
Flow time = 765.95s, time step = 6295
5 more time steps

Updating solution at time level N... done.

Advancing DPM injections ....
number tracked = 551103, escaped = 16, aborted = 0, trapped = 26, evaporated = 0, incomplete = 0, incomplete_parallel = 0

  iter  continuity  x-velocity  y-velocity  z-velocity      energy           k     epsilon     time/iter
!221726 solution is converged
 221726  8.2701e-06  4.5475e-06  5.0183e-06  5.9390e-06  5.0682e-11  1.8834e-06  9.5322e-07  0:01:50   50
 221727  9.5860e-05  2.8793e-05  3.3997e-05  3.6447e-05  2.4710e-07  5.6599e-05  2.3497e-05  0:01:48   49
 221728  6.1251e-04  3.9125e-05  3.9171e-05  4.2740e-05  2.8144e-09  3.7039e-05  1.5900e-05  0:01:48   48
 221729  5.1257e-04  2.6672e-05  2.9534e-05  2.7485e-05  8.1712e-10  2.4466e-05  1.0723e-05  0:01:45   47
 221730  1.6995e-04  1.8834e-05  2.0744e-05  2.0286e-05  3.3089e-10  1.6334e-05  7.2499e-06  0:01:42   46
 221731  5.6310e-05  1.3281e-05  1.4886e-05  1.5978e-05  2.1038e-10  1.1031e-05  4.9453e-06  0:01:39   45
 221732  3.4099e-05  1.0162e-05  1.1515e-05  1.3034e-05  1.4503e-10  7.5391e-06  3.4200e-06  0:01:36   44
 221733  2.0561e-05  8.2071e-06  9.2557e-06  1.0649e-05  1.0659e-10  5.2191e-06  2.4067e-06  0:01:33   43
 221734  1.3368e-05  6.7038e-06  7.5094e-06  8.7371e-06  8.2179e-11  3.6622e-06  1.7284e-06  0:01:31   42
 221735  1.0407e-05  5.5117e-06  6.1243e-06  7.1888e-06  6.4258e-11  2.6066e-06  1.2692e-06  0:01:28   41
!221736 solution is converged
 221736  8.1647e-06  4.5480e-06  5.0128e-06  5.9414e-06  5.0660e-11  1.8831e-06  9.5336e-07  0:01:26   40
Volume Averaged Variable at (3.500000 4.460000 1.200000) is 0.000000e+00
/file/read-macros dooropen.scm

/file/read-macros doorclose.scm

  step  flow-time  volflow_or  volflow_in volflow_cor     temp_p1    temp_max pressure_or pressure_dif pressure_cor mass_balance heat_balance      dpm_p2      dpm_or     dpm_cor
  6296  7.6596e+02 -2.0816e+00  2.1019e+00 -1.3340e-01  2.9414e+02  3.6994e+02  4.8820e+00  5.0009e+00 -1.1893e-01 -1.0272e-04  3.0812e+01  0.0000e+00  9.4486e-13  9.2524e-11
Flow time = 765.96s, time step = 6296
4 more time steps

Updating solution at time level N... done.

Advancing DPM injections ....
number tracked = 551061, escaped = 14, aborted = 0, trapped = 21, evaporated = 0, incomplete = 0, incomplete_parallel = 0

  iter  continuity  x-velocity  y-velocity  z-velocity      energy           k     epsilon     time/iter
!221736 solution is converged
 221736  8.1647e-06  4.5480e-06  5.0128e-06  5.9414e-06  5.0660e-11  1.8831e-06  9.5336e-07  0:01:47   50
 221737  9.5811e-05  2.8794e-05  3.3991e-05  3.6438e-05  2.4702e-07  5.6584e-05  2.3498e-05  0:01:45   49
 221738  6.1261e-04  3.9139e-05  3.9124e-05  4.2811e-05  2.8133e-09  3.7028e-05  1.5900e-05  0:01:43   48
 221739  5.1118e-04  2.6641e-05  2.9434e-05  2.7461e-05  8.1735e-10  2.4460e-05  1.0724e-05  0:01:40   47
 221740  1.6964e-04  1.8839e-05  2.0788e-05  2.0311e-05  3.3136e-10  1.6330e-05  7.2511e-06  0:01:38   46
 221741  5.4222e-05  1.3328e-05  1.4904e-05  1.5976e-05  2.1105e-10  1.1028e-05  4.9468e-06  0:01:36   45
 221742  3.6565e-05  1.0124e-05  1.1491e-05  1.3029e-05  1.4550e-10  7.5372e-06  3.4211e-06  0:01:33   44
 221743  2.0644e-05  8.1967e-06  9.2479e-06  1.0641e-05  1.0668e-10  5.2178e-06  2.4078e-06  0:01:32   43
 221744  1.3187e-05  6.7013e-06  7.5095e-06  8.7307e-06  8.2302e-11  3.6615e-06  1.7295e-06  0:01:30   42
 221745  1.0072e-05  5.5083e-06  6.1275e-06  7.1823e-06  6.4295e-11  2.6061e-06  1.2701e-06  0:01:28   41
!221746 solution is converged
 221746  8.1824e-06  4.5483e-06  5.0161e-06  5.9343e-06  5.0716e-11  1.8827e-06  9.5415e-07  0:01:25   40
Volume Averaged Variable at (3.500000 4.460000 1.200000) is 0.000000e+00
/file/read-macros dooropen.scm

/file/read-macros doorclose.scm

  step  flow-time  volflow_or  volflow_in volflow_cor     temp_p1    temp_max pressure_or pressure_dif pressure_cor mass_balance heat_balance      dpm_p2      dpm_or     dpm_cor
  6297  7.6597e+02 -2.0816e+00  2.1019e+00 -1.3340e-01  2.9414e+02  3.6994e+02  4.8820e+00  5.0009e+00 -1.1889e-01 -1.0315e-04  3.0953e+01  0.0000e+00  9.4480e-13  9.2518e-11
Flow time = 765.97s, time step = 6297
3 more time steps

Updating solution at time level N... done.

Advancing DPM injections ....
number tracked = 551026, escaped = 14, aborted = 0, trapped = 23, evaporated = 0, incomplete = 0, incomplete_parallel = 0

  iter  continuity  x-velocity  y-velocity  z-velocity      energy           k     epsilon     time/iter
!221746 solution is converged
 221746  8.1824e-06  4.5483e-06  5.0161e-06  5.9343e-06  5.0716e-11  1.8827e-06  9.5415e-07  0:01:46   50
 221747  9.5785e-05  2.8794e-05  3.3986e-05  3.6432e-05  2.4694e-07  5.6569e-05  2.3499e-05  0:01:45   49
 221748  6.0966e-04  3.8972e-05  3.9061e-05  4.2704e-05  2.8141e-09  3.7019e-05  1.5902e-05  0:01:44   48
 221749  5.0658e-04  2.6494e-05  2.9336e-05  2.7424e-05  8.1595e-10  2.4453e-05  1.0725e-05  0:01:43   47
 221750  1.7096e-04  1.8824e-05  2.0764e-05  2.0364e-05  3.3050e-10  1.6326e-05  7.2528e-06  0:01:41   46
 221751  5.6185e-05  1.3341e-05  1.4942e-05  1.5976e-05  2.1232e-10  1.1025e-05  4.9480e-06  0:01:40   45
 221752  3.7021e-05  1.0169e-05  1.1519e-05  1.3024e-05  1.4571e-10  7.5353e-06  3.4223e-06  0:01:38   44
 221753  2.1588e-05  8.2018e-06  9.2583e-06  1.0638e-05  1.0684e-10  5.2165e-06  2.4087e-06  0:01:35   43
 221754  1.3668e-05  6.6978e-06  7.5110e-06  8.7264e-06  8.2210e-11  3.6605e-06  1.7302e-06  0:01:33   42
 221755  1.0339e-05  5.5069e-06  6.1224e-06  7.1834e-06  6.4211e-11  2.6055e-06  1.2707e-06  0:01:30   41
!221756 solution is converged
 221756  8.1496e-06  4.5430e-06  5.0095e-06  5.9392e-06  5.0723e-11  1.8823e-06  9.5468e-07  0:01:28   40
Volume Averaged Variable at (3.500000 4.460000 1.200000) is 0.000000e+00
/file/read-macros dooropen.scm

/file/read-macros doorclose.scm

  step  flow-time  volflow_or  volflow_in volflow_cor     temp_p1    temp_max pressure_or pressure_dif pressure_cor mass_balance heat_balance      dpm_p2      dpm_or     dpm_cor
  6298  7.6598e+02 -2.0816e+00  2.1019e+00 -1.3340e-01  2.9414e+02  3.6995e+02  4.8819e+00  5.0008e+00 -1.1886e-01 -1.0376e-04  3.1096e+01  0.0000e+00  9.4477e-13  9.2512e-11
Flow time = 765.98s, time step = 6298
2 more time steps

Updating solution at time level N... done.

Advancing DPM injections ....
number tracked = 550989, escaped = 14, aborted = 0, trapped = 27, evaporated = 0, incomplete = 0, incomplete_parallel = 0

  iter  continuity  x-velocity  y-velocity  z-velocity      energy           k     epsilon     time/iter
!221756 solution is converged
 221756  8.1496e-06  4.5430e-06  5.0095e-06  5.9392e-06  5.0723e-11  1.8823e-06  9.5468e-07  0:01:50   50
 221757  9.5769e-05  2.8787e-05  3.3978e-05  3.6431e-05  2.4686e-07  5.6555e-05  2.3501e-05  0:01:48   49
 221758  6.1001e-04  3.8993e-05  3.9201e-05  4.2709e-05  2.8157e-09  3.7009e-05  1.5904e-05  0:01:47   48
 221759  4.9991e-04  2.6254e-05  2.9128e-05  2.7311e-05  8.1682e-10  2.4446e-05  1.0726e-05  0:01:45   47
 221760  1.7430e-04  1.8868e-05  2.0827e-05  2.0405e-05  3.3166e-10  1.6321e-05  7.2536e-06  0:01:42   46
 221761  5.8935e-05  1.3291e-05  1.4890e-05  1.5961e-05  2.1384e-10  1.1022e-05  4.9492e-06  0:01:39   45
 221762  3.1340e-05  1.0233e-05  1.1600e-05  1.2973e-05  1.4422e-10  7.5334e-06  3.4234e-06  0:01:37   44
 221763  2.0107e-05  8.2257e-06  9.2914e-06  1.0615e-05  1.0671e-10  5.2153e-06  2.4101e-06  0:01:36   43
 221764  1.4099e-05  6.7066e-06  7.5213e-06  8.7172e-06  8.2252e-11  3.6597e-06  1.7312e-06  0:01:35   42
 221765  1.1208e-05  5.5112e-06  6.1261e-06  7.1744e-06  6.4261e-11  2.6050e-06  1.2715e-06  0:01:33   41
!221766 solution is converged
 221766  8.8492e-06  4.5513e-06  5.0127e-06  5.9286e-06  5.0576e-11  1.8820e-06  9.5543e-07  0:01:30   40
Volume Averaged Variable at (3.500000 4.460000 1.200000) is 0.000000e+00
/file/read-macros dooropen.scm

/file/read-macros doorclose.scm

  step  flow-time  volflow_or  volflow_in volflow_cor     temp_p1    temp_max pressure_or pressure_dif pressure_cor mass_balance heat_balance      dpm_p2      dpm_or     dpm_cor
  6299  7.6599e+02 -2.0816e+00  2.1019e+00 -1.3340e-01  2.9414e+02  3.6995e+02  4.8819e+00  5.0008e+00 -1.1886e-01 -1.0418e-04  3.1232e+01  0.0000e+00  9.4462e-13  9.2505e-11
Flow time = 765.99s, time step = 6299
1 more time step

Updating solution at time level N... done.

Advancing DPM injections ....
number tracked = 550948, escaped = 14, aborted = 0, trapped = 31, evaporated = 0, incomplete = 0, incomplete_parallel = 0

  iter  continuity  x-velocity  y-velocity  z-velocity      energy           k     epsilon     time/iter
!221766 solution is converged
 221766  8.8492e-06  4.5513e-06  5.0127e-06  5.9286e-06  5.0576e-11  1.8820e-06  9.5543e-07  0:01:52   50
 221767  9.5699e-05  2.8784e-05  3.3967e-05  3.6430e-05  2.4678e-07  5.6540e-05  2.3501e-05  0:01:49   49
 221768  6.0687e-04  3.8865e-05  3.9112e-05  4.2530e-05  2.8109e-09  3.6999e-05  1.5904e-05  0:01:46   48
 221769  5.0049e-04  2.6265e-05  2.9166e-05  2.7317e-05  8.1498e-10  2.4439e-05  1.0727e-05  0:01:43   47
 221770  1.7324e-04  1.8838e-05  2.0870e-05  2.0355e-05  3.2865e-10  1.6317e-05  7.2550e-06  0:01:40   46
 221771  5.6528e-05  1.3409e-05  1.4965e-05  1.5976e-05  2.1281e-10  1.1019e-05  4.9503e-06  0:01:38   45
 221772  3.7319e-05  1.0165e-05  1.1535e-05  1.2986e-05  1.4621e-10  7.5313e-06  3.4242e-06  0:01:37   44
 221773  2.1740e-05  8.1978e-06  9.2645e-06  1.0618e-05  1.0669e-10  5.2139e-06  2.4105e-06  0:01:34   43
 221774  1.3870e-05  6.6954e-06  7.5109e-06  8.7142e-06  8.2146e-11  3.6588e-06  1.7318e-06  0:01:31   42
 221775  1.0365e-05  5.5063e-06  6.1212e-06  7.1750e-06  6.4148e-11  2.6044e-06  1.2720e-06  0:01:29   41
!221776 solution is converged
 221776  8.1847e-06  4.5463e-06  5.0096e-06  5.9309e-06  5.0554e-11  1.8816e-06  9.5592e-07  0:01:26   40
Volume Averaged Variable at (3.500000 4.460000 1.200000) is 0.000000e+00
/file/read-macros controlruntime.scm
Loading "././controlruntime.scm"
Done.

> 
/file/read-macros dooropen.scm

/file/read-macros doorclose.scm


Writing "/cfs/klemming/scratch/c/congwang/Fluent/New/predoor/SamplePlane/Plane-1-6300"...

Writing information to ascii file ...
Done.

Host receiving summary from compute node zero.

Writing "/cfs/klemming/scratch/c/congwang/Fluent/New/predoor/Data/OR-COR-6300.cas"...

 9386898 mixed cells, zone 73, binary.
 3946867 mixed cells, zone 74, binary.
 9386898 cell partition ids, zone 73, 72 partitions, binary.
 3946867 cell partition ids, zone 74, 72 partitions, binary.
19350142 mixed interior faces, zone 244, binary.
 8081244 mixed interior faces, zone 245, binary.
     574 mixed wall faces, zone 77, binary.
     574 mixed wall faces, zone 48, binary.
     574 mixed wall faces, zone 78, binary.
     574 mixed wall faces, zone 49, binary.
     574 mixed wall faces, zone 79, binary.
     574 mixed wall faces, zone 46, binary.
     574 mixed wall faces, zone 80, binary.
     574 mixed wall faces, zone 47, binary.
     574 mixed wall faces, zone 81, binary.
     574 mixed wall faces, zone 50, binary.
     898 mixed jump faces, zone 82, binary.
     574 mixed wall faces, zone 83, binary.
     574 mixed wall faces, zone 40, binary.
     574 mixed wall faces, zone 84, binary.
     574 mixed wall faces, zone 41, binary.
     574 mixed wall faces, zone 85, binary.
     574 mixed wall faces, zone 38, binary.
     574 mixed wall faces, zone 86, binary.
     574 mixed wall faces, zone 39, binary.
     574 mixed wall faces, zone 87, binary.
     574 mixed wall faces, zone 44, binary.
     574 mixed wall faces, zone 88, binary.
     574 mixed wall faces, zone 45, binary.
     574 mixed wall faces, zone 89, binary.
     574 mixed wall faces, zone 42, binary.
     572 mixed wall faces, zone 90, binary.
     572 mixed wall faces, zone 43, binary.
     574 mixed wall faces, zone 91, binary.
     574 mixed wall faces, zone 32, binary.
     572 mixed wall faces, zone 92, binary.
     572 mixed wall faces, zone 33, binary.
     574 mixed wall faces, zone 93, binary.
     574 mixed wall faces, zone 30, binary.
     572 mixed wall faces, zone 94, binary.
     572 mixed wall faces, zone 31, binary.
     574 mixed wall faces, zone 95, binary.
     574 mixed wall faces, zone 36, binary.
     572 mixed wall faces, zone 96, binary.
     572 mixed wall faces, zone 37, binary.
     574 mixed wall faces, zone 97, binary.
     574 mixed wall faces, zone 34, binary.
     572 mixed wall faces, zone 98, binary.
     572 mixed wall faces, zone 35, binary.
     574 mixed wall faces, zone 99, binary.
     574 mixed wall faces, zone 24, binary.
     572 mixed wall faces, zone 100, binary.
     572 mixed wall faces, zone 25, binary.
     574 mixed wall faces, zone 101, binary.
     574 mixed wall faces, zone 22, binary.
     574 mixed wall faces, zone 102, binary.
     574 mixed wall faces, zone 23, binary.
     572 mixed wall faces, zone 103, binary.
     572 mixed wall faces, zone 28, binary.
     572 mixed wall faces, zone 104, binary.
     572 mixed wall faces, zone 29, binary.
     574 mixed wall faces, zone 105, binary.
     574 mixed wall faces, zone 26, binary.
     572 mixed wall faces, zone 106, binary.
     572 mixed wall faces, zone 27, binary.
     574 mixed wall faces, zone 107, binary.
     574 mixed wall faces, zone 16, binary.
     574 mixed wall faces, zone 108, binary.
     574 mixed wall faces, zone 17, binary.
     574 mixed wall faces, zone 109, binary.
     574 mixed wall faces, zone 14, binary.
     574 mixed wall faces, zone 110, binary.
     574 mixed wall faces, zone 15, binary.
     574 mixed wall faces, zone 111, binary.
     574 mixed wall faces, zone 20, binary.
     574 mixed wall faces, zone 112, binary.
     574 mixed wall faces, zone 21, binary.
     574 mixed wall faces, zone 113, binary.
     574 mixed wall faces, zone 18, binary.
     574 mixed wall faces, zone 114, binary.
     574 mixed wall faces, zone 19, binary.
     574 mixed wall faces, zone 115, binary.
     574 mixed wall faces, zone  8, binary.
     574 mixed wall faces, zone 116, binary.
     574 mixed wall faces, zone  9, binary.
     574 mixed wall faces, zone 117, binary.
     574 mixed wall faces, zone  6, binary.
     574 mixed wall faces, zone 118, binary.
     574 mixed wall faces, zone  7, binary.
     574 mixed wall faces, zone 119, binary.
     574 mixed wall faces, zone 12, binary.
     574 mixed wall faces, zone 120, binary.
     574 mixed wall faces, zone 13, binary.
     574 mixed wall faces, zone 121, binary.
     574 mixed wall faces, zone 10, binary.
     574 mixed wall faces, zone 122, binary.
     574 mixed wall faces, zone 11, binary.
     574 mixed wall faces, zone 123, binary.
     574 mixed wall faces, zone  4, binary.
     574 mixed wall faces, zone 124, binary.
     574 mixed wall faces, zone  5, binary.
     976 mixed wall faces, zone 125, binary.
     976 mixed wall faces, zone  2, binary.
     574 mixed wall faces, zone 126, binary.
     574 mixed wall faces, zone  3, binary.
   42971 triangular velocity-inlet faces, zone 127, binary.
    3750 triangular pressure-outlet faces, zone 128, binary.
    1734 triangular velocity-inlet faces, zone 129, binary.
    1204 triangular pressure-outlet faces, zone 130, binary.
  193965 triangular wall faces, zone 131, binary.
   98169 triangular wall faces, zone 132, binary.
    7945 triangular wall faces, zone 133, binary.
   37956 triangular wall faces, zone 134, binary.
    1826 triangular wall faces, zone 135, binary.
     916 triangular wall faces, zone 136, binary.
    6079 triangular wall faces, zone 137, binary.
     117 triangular wall faces, zone 138, binary.
     574 shadow face pairs, binary.
     574 shadow face pairs, binary.
     574 shadow face pairs, binary.
     574 shadow face pairs, binary.
     574 shadow face pairs, binary.
     574 shadow face pairs, binary.
     574 shadow face pairs, binary.
     574 shadow face pairs, binary.
     574 shadow face pairs, binary.
     574 shadow face pairs, binary.
     574 shadow face pairs, binary.
     574 shadow face pairs, binary.
     572 shadow face pairs, binary.
     574 shadow face pairs, binary.
     572 shadow face pairs, binary.
     574 shadow face pairs, binary.
     572 shadow face pairs, binary.
     574 shadow face pairs, binary.
     572 shadow face pairs, binary.
     574 shadow face pairs, binary.
     572 shadow face pairs, binary.
     574 shadow face pairs, binary.
     572 shadow face pairs, binary.
     574 shadow face pairs, binary.
     574 shadow face pairs, binary.
     572 shadow face pairs, binary.
     572 shadow face pairs, binary.
     574 shadow face pairs, binary.
     572 shadow face pairs, binary.
     574 shadow face pairs, binary.
     574 shadow face pairs, binary.
     574 shadow face pairs, binary.
     574 shadow face pairs, binary.
     574 shadow face pairs, binary.
     574 shadow face pairs, binary.
     574 shadow face pairs, binary.
     574 shadow face pairs, binary.
     574 shadow face pairs, binary.
     574 shadow face pairs, binary.
     574 shadow face pairs, binary.
     574 shadow face pairs, binary.
     574 shadow face pairs, binary.
     574 shadow face pairs, binary.
     574 shadow face pairs, binary.
     574 shadow face pairs, binary.
     574 shadow face pairs, binary.
     574 shadow face pairs, binary.
     976 shadow face pairs, binary.
     574 shadow face pairs, binary.
 3001079 nodes, binary.
 3001079 node flags, binary.
  348480 "or-inlet-profile" point-profile points, x, y, z, u, v, w.
   80802 "cor-inlet-profile" point-profile points, x, y, z, u, v, w.
Done.


Skipping variable seco-breakup-madabhushi-c0 for injection injection-1
Skipping variable seco-breakup-madabhushi-ligament-factor for injection injection-1
Skipping variable start-at-flow-time-in-unsteady-inj-file for injection injection-1
Skipping variable interval-to-repeat-in-unsteady-inj-file for injection injection-1
Writing "/cfs/klemming/scratch/c/congwang/Fluent/New/predoor/Data/OR-COR-6300.cdat"...

Written pressure
Written velocity-magnitude
Written x-velocity
Written y-velocity
Written z-velocity
Written temperature
Written dpm-concentration
Written heat-transfer-coef-wall
Done.

  step  flow-time  volflow_or  volflow_in volflow_cor     temp_p1    temp_max pressure_or pressure_dif pressure_cor mass_balance heat_balance      dpm_p2      dpm_or     dpm_cor
  6300  7.6600e+02 -2.0816e+00  2.1019e+00 -1.3340e-01  2.9414e+02  3.6995e+02  4.8820e+00  5.0009e+00 -1.1889e-01 -1.0466e-04  3.1377e+01  0.0000e+00  9.4454e-13  9.2498e-11
Flow time = 766s, time step = 6300

Warning: An error or interrupt occurred while reading the journal file.
Some commands may not have been completed.


> Halting due to end of file on input.
