/pdc/vol/ansys/19.1/v191/fluent/fluent19.1.0/bin/fluent -r19.1.0 3ddp -g -slurm -t 96 -mpi=ibmmpi -pib -i journal.jou
/pdc/vol/ansys/19.1/v191/fluent/fluent19.1.0/cortex/lnamd64/cortex.19.1.0 -f fluent -g -i journal.jou (fluent "3ddp -pinfiniband  -host -r19.1.0 -t96 -mpi=ibmmpi -path/pdc/vol/ansys/19.1/v191/fluent -ssh")
/pdc/vol/ansys/19.1/v191/fluent/fluent19.1.0/bin/fluent -r19.1.0 3ddp -pinfiniband -host -t96 -mpi=ibmmpi -path/pdc/vol/ansys/19.1/v191/fluent -ssh -cx t02n01.pdc.kth.se:37709:41635
Starting /pdc/vol/ansys/19.1/v191/fluent/fluent19.1.0/lnamd64/3ddp_host/fluent.19.1.0 host -cx t02n01.pdc.kth.se:37709:41635 "(list (rpsetvar (QUOTE parallel/function) "fluent 3ddp -flux -node -r19.1.0 -t96 -pinfiniband -mpi=ibmmpi -ssh") (rpsetvar (QUOTE parallel/rhost) "") (rpsetvar (QUOTE parallel/ruser) "") (rpsetvar (QUOTE parallel/nprocs_string) "96") (rpsetvar (QUOTE parallel/auto-spawn?) #t) (rpsetvar (QUOTE parallel/trace-level) 0) (rpsetvar (QUOTE parallel/remote-shell) 1) (rpsetvar (QUOTE parallel/path) "/pdc/vol/ansys/19.1/v191/fluent") (rpsetvar (QUOTE parallel/hostsfile) "") )"

              Welcome to ANSYS Fluent Release 19.1

              Copyright 1987-2018 ANSYS, Inc. All Rights Reserved.
              Unauthorized use, distribution or duplication is prohibited.
              This product is subject to U.S. laws governing export and re-export.
              For full Legal Notice, see documentation.

Build Time: Apr 09 2018 13:46:05 EDT  Build Id: 10123  
 

     --------------------------------------------------------------
     This is an academic version of ANSYS FLUENT. Usage of this product
     license is limited to the terms and conditions specified in your ANSYS
     license form, additional terms section.
     --------------------------------------------------------------
Host spawning Node 0 on machine "t02n01.pdc.kth.se" (unix).
/pdc/vol/ansys/19.1/v191/fluent/fluent19.1.0/bin/fluent -r19.1.0 3ddp -flux -node -t96 -pinfiniband -mpi=ibmmpi -ssh -mport 193.10.157.105:193.10.157.105:41863:0
-- srun ibmmpi launch --
Starting /pdc/vol/ansys/19.1/v191/fluent/fluent19.1.0/multiport/mpi/lnamd64/ibmmpi/bin/mpirun -e MPI_IBV_NO_FORK_SAFE=1 -e MPI_USE_MALLOPT_MMAP_MAX=0 -prot -IBV -e MPI_HASIC_IBV=1 -srun -n 96 /pdc/vol/ansys/19.1/v191/fluent/fluent19.1.0/lnamd64/3ddp_node/fluent_mpi.19.1.0 node -mpiw ibmmpi -pic infiniband -mport 193.10.157.105:193.10.157.105:41863:0
Host 0 -- ip 193.10.157.105 -- ranks 0 - 23
Host 1 -- ip 193.10.157.108 -- ranks 24 - 47
Host 2 -- ip 193.10.157.120 -- ranks 48 - 71
Host 3 -- ip 193.10.157.152 -- ranks 72 - 95

 host | 0    1    2    3
======|=====================
    0 : SHM  IBV  IBV  IBV
    1 : IBV  SHM  IBV  IBV
    2 : IBV  IBV  SHM  IBV
    3 : IBV  IBV  IBV  SHM

 Prot -  All Intra-node communication is: SHM
 Prot -  All Inter-node communication is: IBV


--------------------------------------------------------------------------------------
ID      Hostname           Core   O.S.      PID          Vendor                      
--------------------------------------------------------------------------------------
n72-95  t03n15.pdc.kth.se  24/48  Linux-64  34476-34499  Intel(R) Xeon(R) E5-2690 v3 
n48-71  t02n19.pdc.kth.se  24/48  Linux-64  31870-31893  Intel(R) Xeon(R) E5-2690 v3 
n24-47  t02n04.pdc.kth.se  24/48  Linux-64  15345-15368  Intel(R) Xeon(R) E5-2690 v3 
n23     t02n01.pdc.kth.se  24/48  Linux-64  24172        Intel(R) Xeon(R) E5-2690 v3 
n22     t02n01.pdc.kth.se  23/48  Linux-64  24171        Intel(R) Xeon(R) E5-2690 v3 
n21     t02n01.pdc.kth.se  22/48  Linux-64  24170        Intel(R) Xeon(R) E5-2690 v3 
n20     t02n01.pdc.kth.se  21/48  Linux-64  24169        Intel(R) Xeon(R) E5-2690 v3 
n19     t02n01.pdc.kth.se  20/48  Linux-64  24168        Intel(R) Xeon(R) E5-2690 v3 
n18     t02n01.pdc.kth.se  19/48  Linux-64  24167        Intel(R) Xeon(R) E5-2690 v3 
n17     t02n01.pdc.kth.se  18/48  Linux-64  24166        Intel(R) Xeon(R) E5-2690 v3 
n16     t02n01.pdc.kth.se  17/48  Linux-64  24164        Intel(R) Xeon(R) E5-2690 v3 
n15     t02n01.pdc.kth.se  16/48  Linux-64  24163        Intel(R) Xeon(R) E5-2690 v3 
n14     t02n01.pdc.kth.se  15/48  Linux-64  24162        Intel(R) Xeon(R) E5-2690 v3 
n13     t02n01.pdc.kth.se  14/48  Linux-64  24161        Intel(R) Xeon(R) E5-2690 v3 
n12     t02n01.pdc.kth.se  13/48  Linux-64  24160        Intel(R) Xeon(R) E5-2690 v3 
n11     t02n01.pdc.kth.se  12/48  Linux-64  24159        Intel(R) Xeon(R) E5-2690 v3 
n10     t02n01.pdc.kth.se  11/48  Linux-64  24158        Intel(R) Xeon(R) E5-2690 v3 
n9      t02n01.pdc.kth.se  10/48  Linux-64  24157        Intel(R) Xeon(R) E5-2690 v3 
n8      t02n01.pdc.kth.se  9/48   Linux-64  24156        Intel(R) Xeon(R) E5-2690 v3 
n7      t02n01.pdc.kth.se  8/48   Linux-64  24155        Intel(R) Xeon(R) E5-2690 v3 
--------------------------------------------------------------------------------------
ID      Hostname           Core   O.S.      PID          Vendor                      
--------------------------------------------------------------------------------------
n6      t02n01.pdc.kth.se  7/48   Linux-64  24154        Intel(R) Xeon(R) E5-2690 v3 
n5      t02n01.pdc.kth.se  6/48   Linux-64  24153        Intel(R) Xeon(R) E5-2690 v3 
n4      t02n01.pdc.kth.se  5/48   Linux-64  24152        Intel(R) Xeon(R) E5-2690 v3 
n3      t02n01.pdc.kth.se  4/48   Linux-64  24151        Intel(R) Xeon(R) E5-2690 v3 
n2      t02n01.pdc.kth.se  3/48   Linux-64  24150        Intel(R) Xeon(R) E5-2690 v3 
n1      t02n01.pdc.kth.se  2/48   Linux-64  24149        Intel(R) Xeon(R) E5-2690 v3 
n0*     t02n01.pdc.kth.se  1/48   Linux-64  24148        Intel(R) Xeon(R) E5-2690 v3 
host    t02n01.pdc.kth.se         Linux-64  23957        Intel(R) Xeon(R) E5-2690 v3 

MPI Option Selected: ibmmpi
Selected system interconnect: InfiniBand
--------------------------------------------------------------------------------------


Posting ANSYS Product Improvement Program startup data
Done.

Reading journal file journal.jou...

> ;
;
file/read-case OR-COR-unsteady.cas.gz

Multicore SMT processors detected. Processor affinity set!

Reading "\"| gunzip -c \\\"OR-COR-unsteady.cas.gz\\\"\""...

Buffering for file scan...



 9386898 mixed cells, zone 73, binary.
 3946867 mixed cells, zone 74, binary.
Warning: reading 4 partition grid onto 96 compute node machine;
         will auto partition.
 9386898 cell partition ids, zone 73, 4 partitions, binary.
Warning: reading 4 partition grid onto 96 compute node machine;
         will auto partition.
 3946867 cell partition ids, zone 74, 4 partitions, binary.
19350142 mixed interior faces, zone 244, binary.
 8081244 mixed interior faces, zone 245, binary.
     574 mixed wall faces, zone 77, binary.
     574 mixed wall faces, zone  2, binary.
     574 mixed wall faces, zone 78, binary.
     574 mixed wall faces, zone  3, binary.
     574 mixed wall faces, zone 79, binary.
     574 mixed wall faces, zone  4, binary.
     574 mixed wall faces, zone 80, binary.
     574 mixed wall faces, zone  5, binary.
     574 mixed wall faces, zone 81, binary.
     574 mixed wall faces, zone  6, binary.
     898 mixed wall faces, zone 82, binary.
     898 mixed wall faces, zone  7, binary.
     574 mixed wall faces, zone 83, binary.
     574 mixed wall faces, zone  8, binary.
     574 mixed wall faces, zone 84, binary.
     574 mixed wall faces, zone  9, binary.
     574 mixed wall faces, zone 85, binary.
     574 mixed wall faces, zone 10, binary.
     574 mixed wall faces, zone 86, binary.
     574 mixed wall faces, zone 11, binary.
     574 mixed wall faces, zone 87, binary.
     574 mixed wall faces, zone 12, binary.
     574 mixed wall faces, zone 88, binary.
     574 mixed wall faces, zone 13, binary.
     574 mixed wall faces, zone 89, binary.
     574 mixed wall faces, zone 14, binary.
     572 mixed wall faces, zone 90, binary.
     572 mixed wall faces, zone 15, binary.
     574 mixed wall faces, zone 91, binary.
     574 mixed wall faces, zone 16, binary.
     572 mixed wall faces, zone 92, binary.
     572 mixed wall faces, zone 17, binary.
     574 mixed wall faces, zone 93, binary.
     574 mixed wall faces, zone 18, binary.
     572 mixed wall faces, zone 94, binary.
     572 mixed wall faces, zone 19, binary.
     574 mixed wall faces, zone 95, binary.
     574 mixed wall faces, zone 20, binary.
     572 mixed wall faces, zone 96, binary.
     572 mixed wall faces, zone 21, binary.
     574 mixed wall faces, zone 97, binary.
     574 mixed wall faces, zone 22, binary.
     572 mixed wall faces, zone 98, binary.
     572 mixed wall faces, zone 23, binary.
     574 mixed wall faces, zone 99, binary.
     574 mixed wall faces, zone 24, binary.
     572 mixed wall faces, zone 100, binary.
     572 mixed wall faces, zone 25, binary.
     574 mixed wall faces, zone 101, binary.
     574 mixed wall faces, zone 26, binary.
     574 mixed wall faces, zone 102, binary.
     574 mixed wall faces, zone 27, binary.
     572 mixed wall faces, zone 103, binary.
     572 mixed wall faces, zone 28, binary.
     572 mixed wall faces, zone 104, binary.
     572 mixed wall faces, zone 29, binary.
     574 mixed wall faces, zone 105, binary.
     574 mixed wall faces, zone 30, binary.
     572 mixed wall faces, zone 106, binary.
     572 mixed wall faces, zone 31, binary.
     574 mixed wall faces, zone 107, binary.
     574 mixed wall faces, zone 32, binary.
     574 mixed wall faces, zone 108, binary.
     574 mixed wall faces, zone 33, binary.
     574 mixed wall faces, zone 109, binary.
     574 mixed wall faces, zone 34, binary.
     574 mixed wall faces, zone 110, binary.
     574 mixed wall faces, zone 35, binary.
     574 mixed wall faces, zone 111, binary.
     574 mixed wall faces, zone 36, binary.
     574 mixed wall faces, zone 112, binary.
     574 mixed wall faces, zone 37, binary.
     574 mixed wall faces, zone 113, binary.
     574 mixed wall faces, zone 38, binary.
     574 mixed wall faces, zone 114, binary.
     574 mixed wall faces, zone 39, binary.
     574 mixed wall faces, zone 115, binary.
     574 mixed wall faces, zone 40, binary.
     574 mixed wall faces, zone 116, binary.
     574 mixed wall faces, zone 41, binary.
     574 mixed wall faces, zone 117, binary.
     574 mixed wall faces, zone 42, binary.
     574 mixed wall faces, zone 118, binary.
     574 mixed wall faces, zone 43, binary.
     574 mixed wall faces, zone 119, binary.
     574 mixed wall faces, zone 44, binary.
     574 mixed wall faces, zone 120, binary.
     574 mixed wall faces, zone 45, binary.
     574 mixed wall faces, zone 121, binary.
     574 mixed wall faces, zone 46, binary.
     574 mixed wall faces, zone 122, binary.
     574 mixed wall faces, zone 47, binary.
     574 mixed wall faces, zone 123, binary.
     574 mixed wall faces, zone 48, binary.
     574 mixed wall faces, zone 124, binary.
     574 mixed wall faces, zone 49, binary.
     976 mixed wall faces, zone 125, binary.
     976 mixed wall faces, zone 50, binary.
     574 mixed wall faces, zone 126, binary.
     574 mixed wall faces, zone 51, binary.
   42971 triangular velocity-inlet faces, zone 127, binary.
    3750 triangular pressure-outlet faces, zone 128, binary.
    1734 triangular velocity-inlet faces, zone 129, binary.
    1204 triangular pressure-outlet faces, zone 130, binary.
  193965 triangular wall faces, zone 131, binary.
   98169 triangular wall faces, zone 132, binary.
    7945 triangular wall faces, zone 133, binary.
   37956 triangular wall faces, zone 134, binary.
    1826 triangular wall faces, zone 135, binary.
     916 triangular wall faces, zone 136, binary.
    6079 triangular wall faces, zone 137, binary.
     117 triangular wall faces, zone 138, binary.
     574 shadow face pairs, binary. 
     574 shadow face pairs, binary. 
     574 shadow face pairs, binary. 
     574 shadow face pairs, binary. 
     574 shadow face pairs, binary. 
     898 shadow face pairs, binary. 
     574 shadow face pairs, binary. 
     574 shadow face pairs, binary. 
     574 shadow face pairs, binary. 
     574 shadow face pairs, binary. 
     574 shadow face pairs, binary. 
     574 shadow face pairs, binary. 
     574 shadow face pairs, binary. 
     572 shadow face pairs, binary. 
     574 shadow face pairs, binary. 
     572 shadow face pairs, binary. 
     574 shadow face pairs, binary. 
     572 shadow face pairs, binary. 
     574 shadow face pairs, binary. 
     572 shadow face pairs, binary. 
     574 shadow face pairs, binary. 
     572 shadow face pairs, binary. 
     574 shadow face pairs, binary. 
     572 shadow face pairs, binary. 
     574 shadow face pairs, binary. 
     574 shadow face pairs, binary. 
     572 shadow face pairs, binary. 
     572 shadow face pairs, binary. 
     574 shadow face pairs, binary. 
     572 shadow face pairs, binary. 
     574 shadow face pairs, binary. 
     574 shadow face pairs, binary. 
     574 shadow face pairs, binary. 
     574 shadow face pairs, binary. 
     574 shadow face pairs, binary. 
     574 shadow face pairs, binary. 
     574 shadow face pairs, binary. 
     574 shadow face pairs, binary. 
     574 shadow face pairs, binary. 
     574 shadow face pairs, binary. 
     574 shadow face pairs, binary. 
     574 shadow face pairs, binary. 
     574 shadow face pairs, binary. 
     574 shadow face pairs, binary. 
     574 shadow face pairs, binary. 
     574 shadow face pairs, binary. 
     574 shadow face pairs, binary. 
     574 shadow face pairs, binary. 
     976 shadow face pairs, binary. 
     574 shadow face pairs, binary. 
 3001709 nodes, binary.
3001709 node flags, binary.
   80802 "cor-inlet-profile" point-profile points, x, y, z, u, v, w.
  348480 "or-inlet-profile" point-profile points, x, y, z, u, v, w.

Checking the existence of compiled "libudf" UDF library for current platform.
If needed will attempt auto-compilation...
Copied /cfs/klemming/scratch/c/congwang/Fluent/New/transient/winter/./ave.c to libudf/src
Creating user.udf file for 3ddp_host ...
Creating user.udf file for 3ddp_node ...


Working...
for d in lnamd64/[23]*; do \
  ( \
    cd $d; \
	rm -rf *.{c,h,cpp,hpp}; \
    for f in ../../src/*.{c,h,cpp,hpp} ../../src/makefile ../../src/user.udf; do \
      if [ -f $f -a ! -f `basename $f` ]; then \
        echo "# linking to" $f "in" $d; \
        ln -s $f .; \
      fi; \
    done; \
    echo ""; \
    echo "# building library in" $d; \
    if [ "" = "1" ]; then \
	echo "# using gcc64"; \
	make ARCHC=gcc64 -k>makelog 2>&1; \
    else \
	if [ "" = "1" ]; then \
		echo "# using gcc"; \
		make ARCHC=gcc -k>makelog 2>&1; \
	else \
		make -k>makelog 2>&1; \
	fi; \
    fi;\
    cat makelog; \
  ) \
done
# linking to ../../src/ave.c in lnamd64/3ddp_host

# building library in lnamd64/3ddp_host
make[1]: Entering directory `/cfs/klemming/scratch/c/congwang/Fluent/New/transient/winter/libudf/lnamd64/3ddp_host'
# Generating udf_names.c because of makefile ave.c
make[2]: Entering directory `/cfs/klemming/scratch/c/congwang/Fluent/New/transient/winter/libudf/lnamd64/3ddp_host'
make libudf.so "CFLAGS=-D_lnamd64 -D_GNU_SOURCE -fpic -shared -ansi -Wall -O -DPTR_RESTRICT=   " "LDFLAGS=-shared -lm"
make[3]: Entering directory `/cfs/klemming/scratch/c/congwang/Fluent/New/transient/winter/libudf/lnamd64/3ddp_host'
# Compiling udf_names.o because of 
cc -D_lnamd64 -D_GNU_SOURCE -fpic -shared -ansi -Wall -O -DPTR_RESTRICT=    -I/pdc/vol/ansys/19.1/v191/fluent/fluent19.1.0/`expr "\`pwd\`" : '.*/\(.*\)/[23].*'`/`basename "\`pwd\`"` -I/pdc/vol/ansys/19.1/v191/fluent/fluent19.1.0/src/main -I/pdc/vol/ansys/19.1/v191/fluent/fluent19.1.0/src/addon-wrapper -I/pdc/vol/ansys/19.1/v191/fluent/fluent19.1.0/src/io -I/pdc/vol/ansys/19.1/v191/fluent/fluent19.1.0/src/species -I/pdc/vol/ansys/19.1/v191/fluent/fluent19.1.0/src/pbns -I/pdc/vol/ansys/19.1/v191/fluent/fluent19.1.0/src/numerics -I/pdc/vol/ansys/19.1/v191/fluent/fluent19.1.0/src/sphysics -I/pdc/vol/ansys/19.1/v191/fluent/fluent19.1.0/src/storage -I/pdc/vol/ansys/19.1/v191/fluent/fluent19.1.0/src/mphase -I/pdc/vol/ansys/19.1/v191/fluent/fluent19.1.0/src/bc -I/pdc/vol/ansys/19.1/v191/fluent/fluent19.1.0/src/models -I/pdc/vol/ansys/19.1/v191/fluent/fluent19.1.0/src/material -I/pdc/vol/ansys/19.1/v191/fluent/fluent19.1.0/src/amg -I/pdc/vol/ansys/19.1/v191/fluent/fluent19.1.0/src/util -I/pdc/vol/ansys/19.1/v191/fluent/fluent19.1.0/src/mesh -I/pdc/vol/ansys/19.1/v191/fluent/fluent19.1.0/src/udf -I/pdc/vol/ansys/19.1/v191/fluent/fluent19.1.0/src/ht -I/pdc/vol/ansys/19.1/v191/fluent/fluent19.1.0/src/dx -I/pdc/vol/ansys/19.1/v191/fluent/fluent19.1.0/src/turbulence -I/pdc/vol/ansys/19.1/v191/fluent/fluent19.1.0/src/parallel -I/pdc/vol/ansys/19.1/v191/fluent/fluent19.1.0/src/etc -I/pdc/vol/ansys/19.1/v191/fluent/fluent19.1.0/src/ue -I/pdc/vol/ansys/19.1/v191/fluent/fluent19.1.0/src/dpm -I/pdc/vol/ansys/19.1/v191/fluent/fluent19.1.0/src/dbns -I/pdc/vol/ansys/19.1/v191/fluent/fluent19.1.0/cortex/src -I/pdc/vol/ansys/19.1/v191/fluent/fluent19.1.0/client/src -I/pdc/vol/ansys/19.1/v191/fluent/fluent19.1.0/tgrid/src -I/pdc/vol/ansys/19.1/v191/fluent/fluent19.1.0/multiport/src -I/pdc/vol/ansys/19.1/v191/fluent/fluent19.1.0/multiport/mpi_wrapper/include -I/pdc/vol/ansys/19.1/v191/fluent/fluent19.1.0/multiport/mpi_wrapper/src -I. -c udf_names.c
# Compiling ave.o because of ave.c
cc -D_lnamd64 -D_GNU_SOURCE -fpic -shared -ansi -Wall -O -DPTR_RESTRICT=     -I/pdc/vol/ansys/19.1/v191/fluent/fluent19.1.0/`expr "\`pwd\`" : '.*/\(.*\)/[23].*'`/`basename "\`pwd\`"` -I/pdc/vol/ansys/19.1/v191/fluent/fluent19.1.0/src/main -I/pdc/vol/ansys/19.1/v191/fluent/fluent19.1.0/src/addon-wrapper -I/pdc/vol/ansys/19.1/v191/fluent/fluent19.1.0/src/io -I/pdc/vol/ansys/19.1/v191/fluent/fluent19.1.0/src/species -I/pdc/vol/ansys/19.1/v191/fluent/fluent19.1.0/src/pbns -I/pdc/vol/ansys/19.1/v191/fluent/fluent19.1.0/src/numerics -I/pdc/vol/ansys/19.1/v191/fluent/fluent19.1.0/src/sphysics -I/pdc/vol/ansys/19.1/v191/fluent/fluent19.1.0/src/storage -I/pdc/vol/ansys/19.1/v191/fluent/fluent19.1.0/src/mphase -I/pdc/vol/ansys/19.1/v191/fluent/fluent19.1.0/src/bc -I/pdc/vol/ansys/19.1/v191/fluent/fluent19.1.0/src/models -I/pdc/vol/ansys/19.1/v191/fluent/fluent19.1.0/src/material -I/pdc/vol/ansys/19.1/v191/fluent/fluent19.1.0/src/amg -I/pdc/vol/ansys/19.1/v191/fluent/fluent19.1.0/src/util -I/pdc/vol/ansys/19.1/v191/fluent/fluent19.1.0/src/mesh -I/pdc/vol/ansys/19.1/v191/fluent/fluent19.1.0/src/udf -I/pdc/vol/ansys/19.1/v191/fluent/fluent19.1.0/src/ht -I/pdc/vol/ansys/19.1/v191/fluent/fluent19.1.0/src/dx -I/pdc/vol/ansys/19.1/v191/fluent/fluent19.1.0/src/turbulence -I/pdc/vol/ansys/19.1/v191/fluent/fluent19.1.0/src/parallel -I/pdc/vol/ansys/19.1/v191/fluent/fluent19.1.0/src/etc -I/pdc/vol/ansys/19.1/v191/fluent/fluent19.1.0/src/ue -I/pdc/vol/ansys/19.1/v191/fluent/fluent19.1.0/src/dpm -I/pdc/vol/ansys/19.1/v191/fluent/fluent19.1.0/src/dbns -I/pdc/vol/ansys/19.1/v191/fluent/fluent19.1.0/cortex/src -I/pdc/vol/ansys/19.1/v191/fluent/fluent19.1.0/client/src -I/pdc/vol/ansys/19.1/v191/fluent/fluent19.1.0/tgrid/src -I/pdc/vol/ansys/19.1/v191/fluent/fluent19.1.0/multiport/src -I/pdc/vol/ansys/19.1/v191/fluent/fluent19.1.0/multiport/mpi_wrapper/include -I/pdc/vol/ansys/19.1/v191/fluent/fluent19.1.0/multiport/mpi_wrapper/src -I. -c ave.c
ave.c: In function 'vol_ave_var':
ave.c:35:7: warning: unused variable 'c_vol' [-Wunused-variable]
  real c_vol = 0.0;
       ^
ave.c:34:7: warning: unused variable 'c_var' [-Wunused-variable]
  real c_var = 0.0;
       ^
ave.c:32:7: warning: unused variable 'c_x' [-Wunused-variable]
  real c_x[ND_ND] = {0.0,0.0,0.0}; 
       ^
ave.c:30:10: warning: variable 'domain' set but not used [-Wunused-but-set-variable]
  Domain *domain;
          ^
ave.c:29:10: warning: unused variable 't' [-Wunused-variable]
  Thread *t;
          ^
ave.c:28:9: warning: unused variable 'c' [-Wunused-variable]
  cell_t c;
         ^
ave.c:27:9: warning: unused variable 'f' [-Wunused-variable]
  face_t f;
         ^
# Linking libudf.so because of makefile user.udf udf_names.c udf_names.o ave.o
cc -shared -lm udf_names.o ave.o  -o libudf.so
make[3]: Leaving directory `/cfs/klemming/scratch/c/congwang/Fluent/New/transient/winter/libudf/lnamd64/3ddp_host'
make[2]: Leaving directory `/cfs/klemming/scratch/c/congwang/Fluent/New/transient/winter/libudf/lnamd64/3ddp_host'
make[1]: Leaving directory `/cfs/klemming/scratch/c/congwang/Fluent/New/transient/winter/libudf/lnamd64/3ddp_host'
# linking to ../../src/ave.c in lnamd64/3ddp_node

# building library in lnamd64/3ddp_node
make[1]: Entering directory `/cfs/klemming/scratch/c/congwang/Fluent/New/transient/winter/libudf/lnamd64/3ddp_node'
# Generating udf_names.c because of makefile ave.c
make[2]: Entering directory `/cfs/klemming/scratch/c/congwang/Fluent/New/transient/winter/libudf/lnamd64/3ddp_node'
make libudf.so "CFLAGS=-D_lnamd64 -D_GNU_SOURCE -fpic -shared -ansi -Wall -O -DPTR_RESTRICT=   " "LDFLAGS=-shared -lm"
make[3]: Entering directory `/cfs/klemming/scratch/c/congwang/Fluent/New/transient/winter/libudf/lnamd64/3ddp_node'
# Compiling udf_names.o because of 
cc -D_lnamd64 -D_GNU_SOURCE -fpic -shared -ansi -Wall -O -DPTR_RESTRICT=    -I/pdc/vol/ansys/19.1/v191/fluent/fluent19.1.0/`expr "\`pwd\`" : '.*/\(.*\)/[23].*'`/`basename "\`pwd\`"` -I/pdc/vol/ansys/19.1/v191/fluent/fluent19.1.0/src/main -I/pdc/vol/ansys/19.1/v191/fluent/fluent19.1.0/src/addon-wrapper -I/pdc/vol/ansys/19.1/v191/fluent/fluent19.1.0/src/io -I/pdc/vol/ansys/19.1/v191/fluent/fluent19.1.0/src/species -I/pdc/vol/ansys/19.1/v191/fluent/fluent19.1.0/src/pbns -I/pdc/vol/ansys/19.1/v191/fluent/fluent19.1.0/src/numerics -I/pdc/vol/ansys/19.1/v191/fluent/fluent19.1.0/src/sphysics -I/pdc/vol/ansys/19.1/v191/fluent/fluent19.1.0/src/storage -I/pdc/vol/ansys/19.1/v191/fluent/fluent19.1.0/src/mphase -I/pdc/vol/ansys/19.1/v191/fluent/fluent19.1.0/src/bc -I/pdc/vol/ansys/19.1/v191/fluent/fluent19.1.0/src/models -I/pdc/vol/ansys/19.1/v191/fluent/fluent19.1.0/src/material -I/pdc/vol/ansys/19.1/v191/fluent/fluent19.1.0/src/amg -I/pdc/vol/ansys/19.1/v191/fluent/fluent19.1.0/src/util -I/pdc/vol/ansys/19.1/v191/fluent/fluent19.1.0/src/mesh -I/pdc/vol/ansys/19.1/v191/fluent/fluent19.1.0/src/udf -I/pdc/vol/ansys/19.1/v191/fluent/fluent19.1.0/src/ht -I/pdc/v
You can also see the 'log'-file in 
the working directory for this compilation history

Done.
ol/ansys/19.1/v191/fluent/fluent19.1.0/src/dx -I/pdc/vol/ansys/19.1/v191/fluent/fluent19.1.0/src/turbulence -I/pdc/vol/ansys/19.1/v191/fluent/fluent19.1.0/src/parallel -I/pdc/vol/ansys/19.1/v191/fluent/fluent19.1.0/src/etc -I/pdc/vol/ansys/19.1/v191/fluent/fluent19.1.0/src/ue -I/pdc/vol/ansys/19.1/v191/fluent/fluent19.1.0/src/dpm -I/pdc/vol/ansys/19.1/v191/fluent/fluent19.1.0/src/dbns -I/pdc/vol/ansys/19.1/v191/fluent/fluent19.1.0/cortex/src -I/pdc/vol/ansys/19.1/v191/fluent/fluent19.1.0/client/src -I/pdc/vol/ansys/19.1/v191/fluent/fluent19.1.0/tgrid/src -I/pdc/vol/ansys/19.1/v191/fluent/fluent19.1.0/multiport/src -I/pdc/vol/ansys/19.1/v191/fluent/fluent19.1.0/multiport/mpi_wrapper/include -I/pdc/vol/ansys/19.1/v191/fluent/fluent19.1.0/multiport/mpi_wrapper/src -I. -c udf_names.c
# Compiling ave.o because of ave.c
cc -D_lnamd64 -D_GNU_SOURCE -fpic -shared -ansi -Wall -O -DPTR_RESTRICT=     -I/pdc/vol/ansys/19.1/v191/fluent/fluent19.1.0/`expr "\`pwd\`" : '.*/\(.*\)/[23].*'`/`basename "\`pwd\`"` -I/pdc/vol/ansys/19.1/v191/fluent/fluent19.1.0/src/main -I/pdc/vol/ansys/19.1/v191/fluent/fluent19.1.0/src/addon-wrapper -I/pdc/vol/ansys/19.1/v191/fluent/fluent19.1.0/src/io -I/pdc/vol/ansys/19.1/v191/fluent/fluent19.1.0/src/species -I/pdc/vol/ansys/19.1/v191/fluent/fluent19.1.0/src/pbns -I/pdc/vol/ansys/19.1/v191/fluent/fluent19.1.0/src/numerics -I/pdc/vol/ansys/19.1/v191/fluent/fluent19.1.0/src/sphysics -I/pdc/vol/ansys/19.1/v191/fluent/fluent19.1.0/src/storage -I/pdc/vol/ansys/19.1/v191/fluent/fluent19.1.0/src/mphase -I/pdc/vol/ansys/19.1/v191/fluent/fluent19.1.0/src/bc -I/pdc/vol/ansys/19.1/v191/fluent/fluent19.1.0/src/models -I/pdc/vol/ansys/19.1/v191/fluent/fluent19.1.0/src/material -I/pdc/vol/ansys/19.1/v191/fluent/fluent19.1.0/src/amg -I/pdc/vol/ansys/19.1/v191/fluent/fluent19.1.0/src/util -I/pdc/vol/ansys/19.1/v191/fluent/fluent19.1.0/src/mesh -I/pdc/vol/ansys/19.1/v191/fluent/fluent19.1.0/src/udf -I/pdc/vol/ansys/19.1/v191/fluent/fluent19.1.0/src/ht -I/pdc/vol/ansys/19.1/v191/fluent/fluent19.1.0/src/dx -I/pdc/vol/ansys/19.1/v191/fluent/fluent19.1.0/src/turbulence -I/pdc/vol/ansys/19.1/v191/fluent/fluent19.1.0/src/parallel -I/pdc/vol/ansys/19.1/v191/fluent/fluent19.1.0/src/etc -I/pdc/vol/ansys/19.1/v191/fluent/fluent19.1.0/src/ue -I/pdc/vol/ansys/19.1/v191/fluent/fluent19.1.0/src/dpm -I/pdc/vol/ansys/19.1/v191/fluent/fluent19.1.0/src/dbns -I/pdc/vol/ansys/19.1/v191/fluent/fluent19.1.0/cortex/src -I/pdc/vol/ansys/19.1/v191/fluent/fluent19.1.0/client/src -I/pdc/vol/ansys/19.1/v191/fluent/fluent19.1.0/tgrid/src -I/pdc/vol/ansys/19.1/v191/fluent/fluent19.1.0/multiport/src -I/pdc/vol/ansys/19.1/v191/fluent/fluent19.1.0/multiport/mpi_wrapper/include -I/pdc/vol/ansys/19.1/v191/fluent/fluent19.1.0/multiport/mpi_wrapper/src -I. -c ave.c
ave.c: In function 'vol_ave_var':
ave.c:27:9: warning: unused variable 'f' [-Wunused-variable]
  face_t f;
         ^
# Linking libudf.so because of makefile user.udf udf_names.c udf_names.o ave.o
cc -shared -lm udf_names.o ave.o  -o libudf.so
make[3]: Leaving directory `/cfs/klemming/scratch/c/congwang/Fluent/New/transient/winter/libudf/lnamd64/3ddp_node'
make[2]: Leaving directory `/cfs/klemming/scratch/c/congwang/Fluent/New/transient/winter/libudf/lnamd64/3ddp_node'
make[1]: Leaving directory `/cfs/klemming/scratch/c/congwang/Fluent/New/transient/winter/libudf/lnamd64/3ddp_node'
Auto-compilation checking of "libudf"...Done

Opening library "/cfs/klemming/scratch/c/congwang/Fluent/New/transient/winter/libudf"...
Library "/cfs/klemming/scratch/c/congwang/Fluent/New/transient/winter/libudf/lnamd64/3ddp_host/libudf.so" opened
Opening library "/cfs/klemming/scratch/c/congwang/Fluent/New/transient/winter/libudf"...
Library "/cfs/klemming/scratch/c/congwang/Fluent/New/transient/winter/libudf/lnamd64/3ddp_node/libudf.so" opened
	vol_ave_var
Done.

Opening library "/cfs/klemming/scratch/c/congwang/Fluent/New/transient/winter/libudf"...
Library "/cfs/klemming/scratch/c/congwang/Fluent/New/transient/winter/libudf/lnamd64/3ddp_node/libudf.so" opened
Opening library "/cfs/klemming/scratch/c/congwang/Fluent/New/transient/winter/libudf"...
Library "/cfs/klemming/scratch/c/congwang/Fluent/New/transient/winter/libudf/lnamd64/3ddp_node/libudf.so" opened
Opening library "/cfs/klemming/scratch/c/congwang/Fluent/New/transient/winter/libudf"...
Library "/cfs/klemming/scratch/c/congwang/Fluent/New/transient/winter/libudf/lnamd64/3ddp_node/libudf.so" opened
Opening library "/cfs/klemming/scratch/c/congwang/Fluent/New/transient/winter/libudf"...
Library "/cfs/klemming/scratch/c/congwang/Fluent/New/transient/winter/libudf/lnamd64/3ddp_node/libudf.so" opened
Opening library "/cfs/klemming/scratch/c/congwang/Fluent/New/transient/winter/libudf"...
Library "/cfs/klemming/scratch/c/congwang/Fluent/New/transient/winter/libudf/lnamd64/3ddp_node/libudf.so" opened
Opening library "/cfs/klemming/scratch/c/congwang/Fluent/New/transient/winter/libudf"...
Library "/cfs/klemming/scratch/c/congwang/Fluent/New/transient/winter/libudf/lnamd64/3ddp_node/libudf.so" opened
Opening library "/cfs/klemming/scratch/c/congwang/Fluent/New/transient/winter/libudf"...
Library "/cfs/klemming/scratch/c/congwang/Fluent/New/transient/winter/libudf/lnamd64/3ddp_node/libudf.so" opened
Opening library "/cfs/klemming/scratch/c/congwang/Fluent/New/transient/winter/libudf"...
Library "/cfs/klemming/scratch/c/congwang/Fluent/New/transient/winter/libudf/lnamd64/3ddp_node/libudf.so" opened
Opening library "/cfs/klemming/scratch/c/congwang/Fluent/New/transient/winter/libudf"...
Library "/cfs/klemming/scratch/c/congwang/Fluent/New/transient/winter/libudf/lnamd64/3ddp_node/libudf.so" opened
Opening library "/cfs/klemming/scratch/c/congwang/Fluent/New/transient/winter/libudf"...
Library "/cfs/klemming/scratch/c/congwang/Fluent/New/transient/winter/libudf/lnamd64/3ddp_node/libudf.so" opened
Opening library "/cfs/klemming/scratch/c/congwang/Fluent/New/transient/winter/libudf"...
Library "/cfs/klemming/scratch/c/congwang/Fluent/New/transient/winter/libudf/lnamd64/3ddp_node/libudf.so" opened
Opening library "/cfs/klemming/scratch/c/congwang/Fluent/New/transient/winter/libudf"...
Library "/cfs/klemming/scratch/c/congwang/Fluent/New/transient/winter/libudf/lnamd64/3ddp_node/libudf.so" opened
Opening library "/cfs/klemming/scratch/c/congwang/Fluent/New/transient/winter/libudf"...
Library "/cfs/klemming/scratch/c/congwang/Fluent/New/transient/winter/libudf/lnamd64/3ddp_node/libudf.so" opened
Opening library "/cfs/klemming/scratch/c/congwang/Fluent/New/transient/winter/libudf"...
Library "/cfs/klemming/scratch/c/congwang/Fluent/New/transient/winter/libudf/lnamd64/3ddp_node/libudf.so" opened
Opening library "/cfs/klemming/scratch/c/congwang/Fluent/New/transient/winter/libudf"...
Library "/cfs/klemming/scratch/c/congwang/Fluent/New/transient/winter/libudf/lnamd64/3ddp_node/libudf.so" opened
Opening library "/cfs/klemming/scratch/c/congwang/Fluent/New/transient/winter/libudf"...
Library "/cfs/klemming/scratch/c/congwang/Fluent/New/transient/winter/libudf/lnamd64/3ddp_node/libudf.so" opened
Opening library "/cfs/klemming/scratch/c/congwang/Fluent/New/transient/winter/libudf"...
Library "/cfs/klemming/scratch/c/congwang/Fluent/New/transient/winter/libudf/lnamd64/3ddp_node/libudf.so" opened
Opening library "/cfs/klemming/scratch/c/congwang/Fluent/New/transient/winter/libudf"...
Library "/cfs/klemming/scratch/c/congwang/Fluent/New/transient/winter/libudf/lnamd64/3ddp_node/libudf.so" opened
Opening library "/cfs/klemming/scratch/c/congwang/Fluent/New/transient/winter/libudf"...
Library "/cfs/klemming/scratch/c/congwang/Fluent/New/transient/winter/libudf/lnamd64/3ddp_node/libudf.so" opened
Opening library "/cfs/klemming/scratch/c/congwang/Fluent/New/transient/winter/libudf"...
Library "/cfs/klemming/scratch/c/congwang/Fluent/New/transient/winter/libudf/lnamd64/3ddp_node/libudf.so" opened
Opening library "/cfs/klemming/scratch/c/congwang/Fluent/New/transient/winter/libudf"...
Library "/cfs/klemming/scratch/c/congwang/Fluent/New/transient/winter/libudf/lnamd64/3ddp_node/libudf.so" opened
Opening library "/cfs/klemming/scratch/c/congwang/Fluent/New/transient/winter/libudf"...
Library "/cfs/klemming/scratch/c/congwang/Fluent/New/transient/winter/libudf/lnamd64/3ddp_node/libudf.so" opened
Opening library "/cfs/klemming/scratch/c/congwang/Fluent/New/transient/winter/libudf"...
Library "/cfs/klemming/scratch/c/congwang/Fluent/New/transient/winter/libudf/lnamd64/3ddp_node/libudf.so" opened
Opening library "/cfs/klemming/scratch/c/congwang/Fluent/New/transient/winter/libudf"...
Library "/cfs/klemming/scratch/c/congwang/Fluent/New/transient/winter/libudf/lnamd64/3ddp_node/libudf.so" opened
Opening library "/cfs/klemming/scratch/c/congwang/Fluent/New/transient/winter/libudf"...
Library "/cfs/klemming/scratch/c/congwang/Fluent/New/transient/winter/libudf/lnamd64/3ddp_node/libudf.so" opened
Opening library "/cfs/klemming/scratch/c/congwang/Fluent/New/transient/winter/libudf"...
Library "/cfs/klemming/scratch/c/congwang/Fluent/New/transient/winter/libudf/lnamd64/3ddp_node/libudf.so" opened
Opening library "/cfs/klemming/scratch/c/congwang/Fluent/New/transient/winter/libudf"...
Library "/cfs/klemming/scratch/c/congwang/Fluent/New/transient/winter/libudf/lnamd64/3ddp_node/libudf.so" opened
Opening library "/cfs/klemming/scratch/c/congwang/Fluent/New/transient/winter/libudf"...
Library "/cfs/klemming/scratch/c/congwang/Fluent/New/transient/winter/libudf/lnamd64/3ddp_node/libudf.so" opened
Opening library "/cfs/klemming/scratch/c/congwang/Fluent/New/transient/winter/libudf"...
Library "/cfs/klemming/scratch/c/congwang/Fluent/New/transient/winter/libudf/lnamd64/3ddp_node/libudf.so" opened
Opening library "/cfs/klemming/scratch/c/congwang/Fluent/New/transient/winter/libudf"...
Library "/cfs/klemming/scratch/c/congwang/Fluent/New/transient/winter/libudf/lnamd64/3ddp_node/libudf.so" opened
Opening library "/cfs/klemming/scratch/c/congwang/Fluent/New/transient/winter/libudf"...
Library "/cfs/klemming/scratch/c/congwang/Fluent/New/transient/winter/libudf/lnamd64/3ddp_node/libudf.so" opened
Opening library "/cfs/klemming/scratch/c/congwang/Fluent/New/transient/winter/libudf"...
Library "/cfs/klemming/scratch/c/congwang/Fluent/New/transient/winter/libudf/lnamd64/3ddp_node/libudf.so" opened
Opening library "/cfs/klemming/scratch/c/congwang/Fluent/New/transient/winter/libudf"...
Library "/cfs/klemming/scratch/c/congwang/Fluent/New/transient/winter/libudf/lnamd64/3ddp_node/libudf.so" opened
Opening library "/cfs/klemming/scratch/c/congwang/Fluent/New/transient/winter/libudf"...
Library "/cfs/klemming/scratch/c/congwang/Fluent/New/transient/winter/libudf/lnamd64/3ddp_node/libudf.so" opened
Opening library "/cfs/klemming/scratch/c/congwang/Fluent/New/transient/winter/libudf"...
Library "/cfs/klemming/scratch/c/congwang/Fluent/New/transient/winter/libudf/lnamd64/3ddp_node/libudf.so" opened
Opening library "/cfs/klemming/scratch/c/congwang/Fluent/New/transient/winter/libudf"...
Library "/cfs/klemming/scratch/c/congwang/Fluent/New/transient/winter/libudf/lnamd64/3ddp_node/libudf.so" opened
Opening library "/cfs/klemming/scratch/c/congwang/Fluent/New/transient/winter/libudf"...
Library "/cfs/klemming/scratch/c/congwang/Fluent/New/transient/winter/libudf/lnamd64/3ddp_node/libudf.so" opened
Opening library "/cfs/klemming/scratch/c/congwang/Fluent/New/transient/winter/libudf"...
Library "/cfs/klemming/scratch/c/congwang/Fluent/New/transient/winter/libudf/lnamd64/3ddp_node/libudf.so" opened
Opening library "/cfs/klemming/scratch/c/congwang/Fluent/New/transient/winter/libudf"...
Library "/cfs/klemming/scratch/c/congwang/Fluent/New/transient/winter/libudf/lnamd64/3ddp_node/libudf.so" opened
Opening library "/cfs/klemming/scratch/c/congwang/Fluent/New/transient/winter/libudf"...
Library "/cfs/klemming/scratch/c/congwang/Fluent/New/transient/winter/libudf/lnamd64/3ddp_node/libudf.so" opened
Opening library "/cfs/klemming/scratch/c/congwang/Fluent/New/transient/winter/libudf"...
Library "/cfs/klemming/scratch/c/congwang/Fluent/New/transient/winter/libudf/lnamd64/3ddp_node/libudf.so" opened
Opening library "/cfs/klemming/scratch/c/congwang/Fluent/New/transient/winter/libudf"...
Library "/cfs/klemming/scratch/c/congwang/Fluent/New/transient/winter/libudf/lnamd64/3ddp_node/libudf.so" opened
Opening library "/cfs/klemming/scratch/c/congwang/Fluent/New/transient/winter/libudf"...
Library "/cfs/klemming/scratch/c/congwang/Fluent/New/transient/winter/libudf/lnamd64/3ddp_node/libudf.so" opened
Opening library "/cfs/klemming/scratch/c/congwang/Fluent/New/transient/winter/libudf"...
Library "/cfs/klemming/scratch/c/congwang/Fluent/New/transient/winter/libudf/lnamd64/3ddp_node/libudf.so" opened
Opening library "/cfs/klemming/scratch/c/congwang/Fluent/New/transient/winter/libudf"...
Library "/cfs/klemming/scratch/c/congwang/Fluent/New/transient/winter/libudf/lnamd64/3ddp_node/libudf.so" opened
Opening library "/cfs/klemming/scratch/c/congwang/Fluent/New/transient/winter/libudf"...
Library "/cfs/klemming/scratch/c/congwang/Fluent/New/transient/winter/libudf/lnamd64/3ddp_node/libudf.so" opened
Opening library "/cfs/klemming/scratch/c/congwang/Fluent/New/transient/winter/libudf"...
Library "/cfs/klemming/scratch/c/congwang/Fluent/New/transient/winter/libudf/lnamd64/3ddp_node/libudf.so" opened
Opening library "/cfs/klemming/scratch/c/congwang/Fluent/New/transient/winter/libudf"...
Library "/cfs/klemming/scratch/c/congwang/Fluent/New/transient/winter/libudf/lnamd64/3ddp_node/libudf.so" opened
Opening library "/cfs/klemming/scratch/c/congwang/Fluent/New/transient/winter/libudf"...
Library "/cfs/klemming/scratch/c/congwang/Fluent/New/transient/winter/libudf/lnamd64/3ddp_node/libudf.so" opened
Opening library "/cfs/klemming/scratch/c/congwang/Fluent/New/transient/winter/libudf"...
Library "/cfs/klemming/scratch/c/congwang/Fluent/New/transient/winter/libudf/lnamd64/3ddp_node/libudf.so" opened
Opening library "/cfs/klemming/scratch/c/congwang/Fluent/New/transient/winter/libudf"...
Library "/cfs/klemming/scratch/c/congwang/Fluent/New/transient/winter/libudf/lnamd64/3ddp_node/libudf.so" opened
Opening library "/cfs/klemming/scratch/c/congwang/Fluent/New/transient/winter/libudf"...
Library "/cfs/klemming/scratch/c/congwang/Fluent/New/transient/winter/libudf/lnamd64/3ddp_node/libudf.so" opened
Opening library "/cfs/klemming/scratch/c/congwang/Fluent/New/transient/winter/libudf"...
Library "/cfs/klemming/scratch/c/congwang/Fluent/New/transient/winter/libudf/lnamd64/3ddp_node/libudf.so" opened
Opening library "/cfs/klemming/scratch/c/congwang/Fluent/New/transient/winter/libudf"...
Library "/cfs/klemming/scratch/c/congwang/Fluent/New/transient/winter/libudf/lnamd64/3ddp_node/libudf.so" opened
Opening library "/cfs/klemming/scratch/c/congwang/Fluent/New/transient/winter/libudf"...
Library "/cfs/klemming/scratch/c/congwang/Fluent/New/transient/winter/libudf/lnamd64/3ddp_node/libudf.so" opened
Opening library "/cfs/klemming/scratch/c/congwang/Fluent/New/transient/winter/libudf"...
Library "/cfs/klemming/scratch/c/congwang/Fluent/New/transient/winter/libudf/lnamd64/3ddp_node/libudf.so" opened
Opening library "/cfs/klemming/scratch/c/congwang/Fluent/New/transient/winter/libudf"...
Library "/cfs/klemming/scratch/c/congwang/Fluent/New/transient/winter/libudf/lnamd64/3ddp_node/libudf.so" opened
Opening library "/cfs/klemming/scratch/c/congwang/Fluent/New/transient/winter/libudf"...
Library "/cfs/klemming/scratch/c/congwang/Fluent/New/transient/winter/libudf/lnamd64/3ddp_node/libudf.so" opened
Opening library "/cfs/klemming/scratch/c/congwang/Fluent/New/transient/winter/libudf"...
Library "/cfs/klemming/scratch/c/congwang/Fluent/New/transient/winter/libudf/lnamd64/3ddp_node/libudf.so" opened
Opening library "/cfs/klemming/scratch/c/congwang/Fluent/New/transient/winter/libudf"...
Library "/cfs/klemming/scratch/c/congwang/Fluent/New/transient/winter/libudf/lnamd64/3ddp_node/libudf.so" opened
Opening library "/cfs/klemming/scratch/c/congwang/Fluent/New/transient/winter/libudf"...
Library "/cfs/klemming/scratch/c/congwang/Fluent/New/transient/winter/libudf/lnamd64/3ddp_node/libudf.so" opened
Opening library "/cfs/klemming/scratch/c/congwang/Fluent/New/transient/winter/libudf"...
Library "/cfs/klemming/scratch/c/congwang/Fluent/New/transient/winter/libudf/lnamd64/3ddp_node/libudf.so" opened
Opening library "/cfs/klemming/scratch/c/congwang/Fluent/New/transient/winter/libudf"...
Library "/cfs/klemming/scratch/c/congwang/Fluent/New/transient/winter/libudf/lnamd64/3ddp_node/libudf.so" opened
Opening library "/cfs/klemming/scratch/c/congwang/Fluent/New/transient/winter/libudf"...
Library "/cfs/klemming/scratch/c/congwang/Fluent/New/transient/winter/libudf/lnamd64/3ddp_node/libudf.so" opened
Opening library "/cfs/klemming/scratch/c/congwang/Fluent/New/transient/winter/libudf"...
Library "/cfs/klemming/scratch/c/congwang/Fluent/New/transient/winter/libudf/lnamd64/3ddp_node/libudf.so" opened
Opening library "/cfs/klemming/scratch/c/congwang/Fluent/New/transient/winter/libudf"...
Library "/cfs/klemming/scratch/c/congwang/Fluent/New/transient/winter/libudf/lnamd64/3ddp_node/libudf.so" opened
Opening library "/cfs/klemming/scratch/c/congwang/Fluent/New/transient/winter/libudf"...
Library "/cfs/klemming/scratch/c/congwang/Fluent/New/transient/winter/libudf/lnamd64/3ddp_node/libudf.so" opened
Opening library "/cfs/klemming/scratch/c/congwang/Fluent/New/transient/winter/libudf"...
Library "/cfs/klemming/scratch/c/congwang/Fluent/New/transient/winter/libudf/lnamd64/3ddp_node/libudf.so" opened
Opening library "/cfs/klemming/scratch/c/congwang/Fluent/New/transient/winter/libudf"...
Library "/cfs/klemming/scratch/c/congwang/Fluent/New/transient/winter/libudf/lnamd64/3ddp_node/libudf.so" opened
Opening library "/cfs/klemming/scratch/c/congwang/Fluent/New/transient/winter/libudf"...
Library "/cfs/klemming/scratch/c/congwang/Fluent/New/transient/winter/libudf/lnamd64/3ddp_node/libudf.so" opened
Opening library "/cfs/klemming/scratch/c/congwang/Fluent/New/transient/winter/libudf"...
Library "/cfs/klemming/scratch/c/congwang/Fluent/New/transient/winter/libudf/lnamd64/3ddp_node/libudf.so" opened
Opening library "/cfs/klemming/scratch/c/congwang/Fluent/New/transient/winter/libudf"...
Library "/cfs/klemming/scratch/c/congwang/Fluent/New/transient/winter/libudf/lnamd64/3ddp_node/libudf.so" opened
Opening library "/cfs/klemming/scratch/c/congwang/Fluent/New/transient/winter/libudf"...
Library "/cfs/klemming/scratch/c/congwang/Fluent/New/transient/winter/libudf/lnamd64/3ddp_node/libudf.so" opened
Opening library "/cfs/klemming/scratch/c/congwang/Fluent/New/transient/winter/libudf"...
Library "/cfs/klemming/scratch/c/congwang/Fluent/New/transient/winter/libudf/lnamd64/3ddp_node/libudf.so" opened
Opening library "/cfs/klemming/scratch/c/congwang/Fluent/New/transient/winter/libudf"...
Library "/cfs/klemming/scratch/c/congwang/Fluent/New/transient/winter/libudf/lnamd64/3ddp_node/libudf.so" opened
Opening library "/cfs/klemming/scratch/c/congwang/Fluent/New/transient/winter/libudf"...
Library "/cfs/klemming/scratch/c/congwang/Fluent/New/transient/winter/libudf/lnamd64/3ddp_node/libudf.so" opened
Opening library "/cfs/klemming/scratch/c/congwang/Fluent/New/transient/winter/libudf"...
Library "/cfs/klemming/scratch/c/congwang/Fluent/New/transient/winter/libudf/lnamd64/3ddp_node/libudf.so" opened
Opening library "/cfs/klemming/scratch/c/congwang/Fluent/New/transient/winter/libudf"...
Library "/cfs/klemming/scratch/c/congwang/Fluent/New/transient/winter/libudf/lnamd64/3ddp_node/libudf.so" opened
Opening library "/cfs/klemming/scratch/c/congwang/Fluent/New/transient/winter/libudf"...
Library "/cfs/klemming/scratch/c/congwang/Fluent/New/transient/winter/libudf/lnamd64/3ddp_node/libudf.so" opened
Opening library "/cfs/klemming/scratch/c/congwang/Fluent/New/transient/winter/libudf"...
Library "/cfs/klemming/scratch/c/congwang/Fluent/New/transient/winter/libudf/lnamd64/3ddp_node/libudf.so" opened
Opening library "/cfs/klemming/scratch/c/congwang/Fluent/New/transient/winter/libudf"...
Library "/cfs/klemming/scratch/c/congwang/Fluent/New/transient/winter/libudf/lnamd64/3ddp_node/libudf.so" opened
Opening library "/cfs/klemming/scratch/c/congwang/Fluent/New/transient/winter/libudf"...
Library "/cfs/klemming/scratch/c/congwang/Fluent/New/transient/winter/libudf/lnamd64/3ddp_node/libudf.so" opened
Opening library "/cfs/klemming/scratch/c/congwang/Fluent/New/transient/winter/libudf"...
Library "/cfs/klemming/scratch/c/congwang/Fluent/New/transient/winter/libudf/lnamd64/3ddp_node/libudf.so" opened
Opening library "/cfs/klemming/scratch/c/congwang/Fluent/New/transient/winter/libudf"...
Library "/cfs/klemming/scratch/c/congwang/Fluent/New/transient/winter/libudf/lnamd64/3ddp_node/libudf.so" opened
Opening library "/cfs/klemming/scratch/c/congwang/Fluent/New/transient/winter/libudf"...
Library "/cfs/klemming/scratch/c/congwang/Fluent/New/transient/winter/libudf/lnamd64/3ddp_node/libudf.so" opened
Opening library "/cfs/klemming/scratch/c/congwang/Fluent/New/transient/winter/libudf"...
Library "/cfs/klemming/scratch/c/congwang/Fluent/New/transient/winter/libudf/lnamd64/3ddp_node/libudf.so" opened
Opening library "/cfs/klemming/scratch/c/congwang/Fluent/New/transient/winter/libudf"...
Library "/cfs/klemming/scratch/c/congwang/Fluent/New/transient/winter/libudf/lnamd64/3ddp_node/libudf.so" opened
Opening library "/cfs/klemming/scratch/c/congwang/Fluent/New/transient/winter/libudf"...
Library "/cfs/klemming/scratch/c/congwang/Fluent/New/transient/winter/libudf/lnamd64/3ddp_node/libudf.so" opened
Opening library "/cfs/klemming/scratch/c/congwang/Fluent/New/transient/winter/libudf"...
Library "/cfs/klemming/scratch/c/congwang/Fluent/New/transient/winter/libudf/lnamd64/3ddp_node/libudf.so" opened
Opening library "/cfs/klemming/scratch/c/congwang/Fluent/New/transient/winter/libudf"...
Library "/cfs/klemming/scratch/c/congwang/Fluent/New/transient/winter/libudf/lnamd64/3ddp_node/libudf.so" opened
Opening library "/cfs/klemming/scratch/c/congwang/Fluent/New/transient/winter/libudf"...
Library "/cfs/klemming/scratch/c/congwang/Fluent/New/transient/winter/libudf/lnamd64/3ddp_node/libudf.so" opened
Opening library "/cfs/klemming/scratch/c/congwang/Fluent/New/transient/winter/libudf"...
Library "/cfs/klemming/scratch/c/congwang/Fluent/New/transient/winter/libudf/lnamd64/3ddp_node/libudf.so" opened
Opening library "/cfs/klemming/scratch/c/congwang/Fluent/New/transient/winter/libudf"...
Library "/cfs/klemming/scratch/c/congwang/Fluent/New/transient/winter/libudf/lnamd64/3ddp_node/libudf.so" opened
Opening library "/cfs/klemming/scratch/c/congwang/Fluent/New/transient/winter/libudf"...
Library "/cfs/klemming/scratch/c/congwang/Fluent/New/transient/winter/libudf/lnamd64/3ddp_node/libudf.so" opened
Opening library "/cfs/klemming/scratch/c/congwang/Fluent/New/transient/winter/libudf"...
Library "/cfs/klemming/scratch/c/congwang/Fluent/New/transient/winter/libudf/lnamd64/3ddp_node/libudf.so" opened
Building...
     mesh
	auto partitioning mesh by Metis (fast),
	distributing mesh
		pairs..................................................,
		parts..................................................,
		faces..................................................,
		nodes..................................................,
		shadow nodes..................................................,
		cells..................................................,
        inter-node communication reduction using architecture-aware remapping: 77%
        bandwidth reduction using Reverse Cuthill-McKee: 140133/2911 = 48.1391
     materials,
     interface,
     domains,
	mixture
     zones,
	or_equip
	or_lamp_heat
	or_lamp_wall
	or_persons
	or_table
	cor_wall
	or_wall
	cor_outlet
	cor_inlet
	or_inlet
	interior-cor
	interior-or
	xdoor-d01
	xdoor-d01-shadow
	xdoor-d02
	xdoor-d02-shadow
	xdoor-d03
	xdoor-d03-shadow
	xdoor-d04
	xdoor-d04-shadow
	xdoor-d05
	xdoor-d05-shadow
	xdoor-d06
	xdoor-d06-shadow
	xdoor-d07
	xdoor-d07-shadow
	xdoor-d08
	xdoor-d08-shadow
	xdoor-d09
	xdoor-d09-shadow
	xdoor-d10
	xdoor-d10-shadow
	xdoor-d11
	xdoor-d11-shadow
	xdoor-d12
	xdoor-d12-shadow
	xdoor-d13
	xdoor-d13-shadow
	xdoor-d14
	xdoor-d14-shadow
	xdoor-d15
	xdoor-d15-shadow
	xdoor-d16
	xdoor-d16-shadow
	xdoor-d17
	xdoor-d17-shadow
	xdoor-d18
	xdoor-d18-shadow
	xdoor-d19
	xdoor-d19-shadow
	xdoor-d20
	xdoor-d20-shadow
	xdoor-d21
	xdoor-d21-shadow
	xdoor-d22
	xdoor-d22-shadow
	xdoor-d23
	xdoor-d23-shadow
	xdoor-d24
	xdoor-d24-shadow
	xdoor-d25
	xdoor-d25-shadow
	xdoor-d26
	xdoor-d26-shadow
	xdoor-d27
	xdoor-d27-shadow
	xdoor-d28
	xdoor-d28-shadow
	xdoor-d29
	xdoor-d29-shadow
	xdoor-d30
	xdoor-d30-shadow
	xdoor-d31
	xdoor-d31-shadow
	xdoor-d32
	xdoor-d32-shadow
	xdoor-d33
	xdoor-d33-shadow
	xdoor-d34
	xdoor-d34-shadow
	xdoor-d35
	xdoor-d35-shadow
	xdoor-d36
	xdoor-d36-shadow
	xdoor-d37
	xdoor-d37-shadow
	xdoor-d38
	xdoor-d38-shadow
	xdoor-d39
	xdoor-d39-shadow
	xdoor-d40
	xdoor-d40-shadow
	xdoor-d41
	xdoor-d41-shadow
	xdoor-d42
	xdoor-d42-shadow
	xdoor-d43
	xdoor-d43-shadow
	xdoor-d44
	xdoor-d44-shadow
	xdoor-d45
	xdoor-d45-shadow
	xdoor-d46
	xdoor-d46-shadow
	xdoor-d47
	xdoor-d47-shadow
	xdoor-d48
	xdoor-d48-shadow
	xdoor-d49
	xdoor-d49-shadow
	xdoor-d50
	xdoor-d50-shadow
	or_outlet
	sampler
	cor
	or
Skipping variable seco-breakup-madabhushi-c0 for injection injection-1
Skipping variable seco-breakup-madabhushi-ligament-factor for injection injection-1
Skipping variable start-at-flow-time-in-unsteady-inj-file for injection injection-1
Skipping variable interval-to-repeat-in-unsteady-inj-file for injection injection-1
Skipping variable seco-breakup-madabhushi-c0 for injection injection-1
Skipping variable seco-breakup-madabhushi-ligament-factor for injection injection-1
Skipping variable start-at-flow-time-in-unsteady-inj-file for injection injection-1
Skipping variable interval-to-repeat-in-unsteady-inj-file for injection injection-1
Skipping variable seco-breakup-madabhushi-c0 for injection injection-1
Skipping variable seco-breakup-madabhushi-ligament-factor for injection injection-1
Skipping variable start-at-flow-time-in-unsteady-inj-file for injection injection-1
Skipping variable interval-to-repeat-in-unsteady-inj-file for injection injection-1
     parallel,
Done.

> file/read-data OR-COR-4-06400.dat.gz

Reading "\"| gunzip -c \\\"OR-COR-4-06400.dat.gz\\\"\""...



Parallel variables...
Done.

> ;
;
; 
;
; solve/set/under-relaxation pressure 0.7 mom 0.3 temperature 1.0  k 0.8  epsilon 0.8
;
; solve/monitors/residual/convergence-criteria 1e-5 , , , , , , , , , , , , ;
;
;
; define/boundary-conditions/outlet-vent , , , , , , , , , , , , , , ,   5.0
;
;
;
; file/auto-save/case-frequency if-case-is-modified
file/auto-save/data-frequency 600

> file/auto-save/root-name OR-COR.gz

> ;
;
;
;
; solve/initialize/initialize-flow
; solve/initialize/hyb-initialization
; solve/initialize/fmg-initialization yes
;
;
; define/boundary-conditions outlet-vent or_outlet , , -21.426 , , , , , , , , , , , , , 25
;
;
; solve/iterate 1000
solve/set/time-step 0.2

> solve/dual-time-iterate 3000 50 
Updating solution at time level N... done.
Injecting 1734 particle parcels with mass 2e-11 at t = 0

Advancing DPM injections ....
number tracked = 1734, escaped = 0, aborted = 0, trapped = 99, evaporated = 0, incomplete = 0, incomplete_parallel = 0

  iter     time/iter
Volume Averaged Variable at (3.500000 4.460000 1.200000) is 0.000000e+00
  step  flow-time  volflow_or  volflow_in volflow_cor     temp_p1    temp_max pressure_or pressure_dif pressure_cor mass_balance heat_balance      dpm_p2      dpm_or     dpm_cor
     1  2.0000e-01 -2.1069e+00  2.1019e+00 -1.0800e-01  2.9410e+02  3.6344e+02  5.2215e+00  5.0006e+00  2.2091e-01  1.0166e-07  9.8945e-02  0.0000e+00  0.0000e+00  2.8862e-13
Flow time = 0.2s, time step = 1
2999 more time steps

Updating solution at time level N... done.
Injecting 1734 particle parcels with mass 2e-11 at t = 0.2

Advancing DPM injections ....
number tracked = 3369, escaped = 0, aborted = 0, trapped = 166, evaporated = 0, incomplete = 0, incomplete_parallel = 0

  iter     time/iter
Volume Averaged Variable at (3.500000 4.460000 1.200000) is 0.000000e+00
  step  flow-time  volflow_or  volflow_in volflow_cor     temp_p1    temp_max pressure_or pressure_dif pressure_cor mass_balance heat_balance      dpm_p2      dpm_or     dpm_cor
     2  4.0000e-01 -2.1069e+00  2.1019e+00 -1.0800e-01  2.9410e+02  3.6344e+02  5.2215e+00  5.0006e+00  2.2091e-01  1.0166e-07  9.8945e-02  0.0000e+00  0.0000e+00  5.6279e-13
Flow time = 0.4s, time step = 2
2998 more time steps

Updating solution at time level N... done.
Injecting 1734 particle parcels with mass 2e-11 at t = 0.4

Advancing DPM injections ....
number tracked = 4937, escaped = 0, aborted = 0, trapped = 158, evaporated = 0, incomplete = 0, incomplete_parallel = 0

  iter     time/iter
Volume Averaged Variable at (3.500000 4.460000 1.200000) is 0.000000e+00
  step  flow-time  volflow_or  volflow_in volflow_cor     temp_p1    temp_max pressure_or pressure_dif pressure_cor mass_balance heat_balance      dpm_p2      dpm_or     dpm_cor
     3  6.0000e-01 -2.1069e+00  2.1019e+00 -1.0800e-01  2.9410e+02  3.6344e+02  5.2215e+00  5.0006e+00  2.2091e-01  1.0166e-07  9.8945e-02  0.0000e+00  0.0000e+00  8.3370e-13
Flow time = 0.6000000000000001s, time step = 3
2997 more time steps

Updating solution at time level N... done.
Injecting 1734 particle parcels with mass 2e-11 at t = 0.6

Advancing DPM injections ....
number tracked = 6513, escaped = 0, aborted = 0, trapped = 190, evaporated = 0, incomplete = 0, incomplete_parallel = 0

  iter     time/iter
Volume Averaged Variable at (3.500000 4.460000 1.200000) is 0.000000e+00
  step  flow-time  volflow_or  volflow_in volflow_cor     temp_p1    temp_max pressure_or pressure_dif pressure_cor mass_balance heat_balance      dpm_p2      dpm_or     dpm_cor
     4  8.0000e-01 -2.1069e+00  2.1019e+00 -1.0800e-01  2.9410e+02  3.6344e+02  5.2215e+00  5.0006e+00  2.2091e-01  1.0166e-07  9.8945e-02  0.0000e+00  0.0000e+00  1.1021e-12
Flow time = 0.8s, time step = 4
2996 more time steps

Updating solution at time level N... done.
Injecting 1734 particle parcels with mass 2e-11 at t = 0.8

Advancing DPM injections ....
number tracked = 8057, escaped = 0, aborted = 0, trapped = 208, evaporated = 0, incomplete = 0, incomplete_parallel = 0

  iter     time/iter
Volume Averaged Variable at (3.500000 4.460000 1.200000) is 0.000000e+00
  step  flow-time  volflow_or  volflow_in volflow_cor     temp_p1    temp_max pressure_or pressure_dif pressure_cor mass_balance heat_balance      dpm_p2      dpm_or     dpm_cor
     5  1.0000e+00 -2.1069e+00  2.1019e+00 -1.0800e-01  2.9410e+02  3.6344e+02  5.2215e+00  5.0006e+00  2.2091e-01  1.0166e-07  9.8945e-02  0.0000e+00  0.0000e+00  1.3662e-12
Flow time = 1s, time step = 5
2995 more time steps

Updating solution at time level N... done.
Injecting 1734 particle parcels with mass 2e-11 at t = 1

Advancing DPM injections ....
number tracked = 9583, escaped = 0, aborted = 0, trapped = 224, evaporated = 0, incomplete = 0, incomplete_parallel = 0

  iter     time/iter
Volume Averaged Variable at (3.500000 4.460000 1.200000) is 0.000000e+00
  step  flow-time  volflow_or  volflow_in volflow_cor     temp_p1    temp_max pressure_or pressure_dif pressure_cor mass_balance heat_balance      dpm_p2      dpm_or     dpm_cor
     6  1.2000e+00 -2.1069e+00  2.1019e+00 -1.0800e-01  2.9410e+02  3.6344e+02  5.2215e+00  5.0006e+00  2.2091e-01  1.0166e-07  9.8945e-02  0.0000e+00  0.0000e+00  1.6272e-12
Flow time = 1.2s, time step = 6
2994 more time steps

Updating solution at time level N... done.
Injecting 1734 particle parcels with mass 2e-11 at t = 1.2

Advancing DPM injections ....
number tracked = 11093, escaped = 0, aborted = 0, trapped = 224, evaporated = 0, incomplete = 0, incomplete_parallel = 0

  iter     time/iter
Volume Averaged Variable at (3.500000 4.460000 1.200000) is 0.000000e+00
  step  flow-time  volflow_or  volflow_in volflow_cor     temp_p1    temp_max pressure_or pressure_dif pressure_cor mass_balance heat_balance      dpm_p2      dpm_or     dpm_cor
     7  1.4000e+00 -2.1069e+00  2.1019e+00 -1.0800e-01  2.9410e+02  3.6344e+02  5.2215e+00  5.0006e+00  2.2091e-01  1.0166e-07  9.8945e-02  0.0000e+00  0.0000e+00  1.8868e-12
Flow time = 1.4s, time step = 7
2993 more time steps

Updating solution at time level N... done.
Injecting 1734 particle parcels with mass 2e-11 at t = 1.4

Advancing DPM injections ....
number tracked = 12603, escaped = 0, aborted = 0, trapped = 217, evaporated = 0, incomplete = 0, incomplete_parallel = 0

  iter     time/iter
Volume Averaged Variable at (3.500000 4.460000 1.200000) is 0.000000e+00
  step  flow-time  volflow_or  volflow_in volflow_cor     temp_p1    temp_max pressure_or pressure_dif pressure_cor mass_balance heat_balance      dpm_p2      dpm_or     dpm_cor
     8  1.6000e+00 -2.1069e+00  2.1019e+00 -1.0800e-01  2.9410e+02  3.6344e+02  5.2215e+00  5.0006e+00  2.2091e-01  1.0166e-07  9.8945e-02  0.0000e+00  0.0000e+00  2.1474e-12
Flow time = 1.6s, time step = 8
2992 more time steps

Updating solution at time level N... done.
Injecting 1734 particle parcels with mass 2e-11 at t = 1.6

Advancing DPM injections ....
number tracked = 14120, escaped = 0, aborted = 0, trapped = 233, evaporated = 0, incomplete = 0, incomplete_parallel = 0

  iter     time/iter
Volume Averaged Variable at (3.500000 4.460000 1.200000) is 0.000000e+00
  step  flow-time  volflow_or  volflow_in volflow_cor     temp_p1    temp_max pressure_or pressure_dif pressure_cor mass_balance heat_balance      dpm_p2      dpm_or     dpm_cor
     9  1.8000e+00 -2.1069e+00  2.1019e+00 -1.0800e-01  2.9410e+02  3.6344e+02  5.2215e+00  5.0006e+00  2.2091e-01  1.0166e-07  9.8945e-02  0.0000e+00  0.0000e+00  2.4081e-12
Flow time = 1.8s, time step = 9
2991 more time steps

Updating solution at time level N... done.
Injecting 1734 particle parcels with mass 2e-11 at t = 1.8

Advancing DPM injections ....
number tracked = 15621, escaped = 0, aborted = 0, trapped = 225, evaporated = 0, incomplete = 0, incomplete_parallel = 0

  iter     time/iter
Volume Averaged Variable at (3.500000 4.460000 1.200000) is 0.000000e+00
/file/read-macros controlruntime.scm
Loading "././controlruntime.scm"
Done.

> 
  step  flow-time  volflow_or  volflow_in volflow_cor     temp_p1    temp_max pressure_or pressure_dif pressure_cor mass_balance heat_balance      dpm_p2      dpm_or     dpm_cor
    10  2.0000e+00 -2.1069e+00  2.1019e+00 -1.0800e-01  2.9410e+02  3.6344e+02  5.2215e+00  5.0006e+00  2.2091e-01  1.0166e-07  9.8945e-02  0.0000e+00  0.0000e+00  2.6671e-12
Flow time = 2s, time step = 10
2990 more time steps

Updating solution at time level N... done.
Injecting 1734 particle parcels with mass 2e-11 at t = 2

Advancing DPM injections ....
number tracked = 17130, escaped = 0, aborted = 0, trapped = 242, evaporated = 0, incomplete = 0, incomplete_parallel = 0

  iter     time/iter
Volume Averaged Variable at (3.500000 4.460000 1.200000) is 0.000000e+00
  step  flow-time  volflow_or  volflow_in volflow_cor     temp_p1    temp_max pressure_or pressure_dif pressure_cor mass_balance heat_balance      dpm_p2      dpm_or     dpm_cor
    11  2.2000e+00 -2.1069e+00  2.1019e+00 -1.0800e-01  2.9410e+02  3.6344e+02  5.2215e+00  5.0006e+00  2.2091e-01  1.0166e-07  9.8945e-02  0.0000e+00  0.0000e+00  2.9261e-12
Flow time = 2.2s, time step = 11
2989 more time steps

Updating solution at time level N... done.
Injecting 1734 particle parcels with mass 2e-11 at t = 2.2

Advancing DPM injections ....
number tracked = 18622, escaped = 0, aborted = 0, trapped = 251, evaporated = 0, incomplete = 0, incomplete_parallel = 0

  iter     time/iter
Volume Averaged Variable at (3.500000 4.460000 1.200000) is 0.000000e+00
  step  flow-time  volflow_or  volflow_in volflow_cor     temp_p1    temp_max pressure_or pressure_dif pressure_cor mass_balance heat_balance      dpm_p2      dpm_or     dpm_cor
    12  2.4000e+00 -2.1069e+00  2.1019e+00 -1.0800e-01  2.9410e+02  3.6344e+02  5.2215e+00  5.0006e+00  2.2091e-01  1.0166e-07  9.8945e-02  0.0000e+00  0.0000e+00  3.1812e-12
Flow time = 2.4s, time step = 12
2988 more time steps

Updating solution at time level N... done.
Injecting 1734 particle parcels with mass 2e-11 at t = 2.4

Advancing DPM injections ....
number tracked = 20105, escaped = 0, aborted = 0, trapped = 282, evaporated = 0, incomplete = 0, incomplete_parallel = 0

  iter     time/iter
Volume Averaged Variable at (3.500000 4.460000 1.200000) is 0.000000e+00
  step  flow-time  volflow_or  volflow_in volflow_cor     temp_p1    temp_max pressure_or pressure_dif pressure_cor mass_balance heat_balance      dpm_p2      dpm_or     dpm_cor
    13  2.6000e+00 -2.1069e+00  2.1019e+00 -1.0800e-01  2.9410e+02  3.6344e+02  5.2215e+00  5.0006e+00  2.2091e-01  1.0166e-07  9.8945e-02  0.0000e+00  0.0000e+00  3.4338e-12
Flow time = 2.6s, time step = 13
2987 more time steps

Updating solution at time level N... done.
Injecting 1734 particle parcels with mass 2e-11 at t = 2.6

Advancing DPM injections ....
number tracked = 21557, escaped = 0, aborted = 0, trapped = 254, evaporated = 0, incomplete = 0, incomplete_parallel = 0

  iter     time/iter
Volume Averaged Variable at (3.500000 4.460000 1.200000) is 0.000000e+00
  step  flow-time  volflow_or  volflow_in volflow_cor     temp_p1    temp_max pressure_or pressure_dif pressure_cor mass_balance heat_balance      dpm_p2      dpm_or     dpm_cor
    14  2.8000e+00 -2.1069e+00  2.1019e+00 -1.0800e-01  2.9410e+02  3.6344e+02  5.2215e+00  5.0006e+00  2.2091e-01  1.0166e-07  9.8945e-02  0.0000e+00  0.0000e+00  3.6865e-12
Flow time = 2.8s, time step = 14
2986 more time steps

Updating solution at time level N... done.
Injecting 1734 particle parcels with mass 2e-11 at t = 2.8

Advancing DPM injections ....
number tracked = 23037, escaped = 0, aborted = 0, trapped = 244, evaporated = 0, incomplete = 0, incomplete_parallel = 0

  iter     time/iter
Volume Averaged Variable at (3.500000 4.460000 1.200000) is 0.000000e+00
  step  flow-time  volflow_or  volflow_in volflow_cor     temp_p1    temp_max pressure_or pressure_dif pressure_cor mass_balance heat_balance      dpm_p2      dpm_or     dpm_cor
    15  3.0000e+00 -2.1069e+00  2.1019e+00 -1.0800e-01  2.9410e+02  3.6344e+02  5.2215e+00  5.0006e+00  2.2091e-01  1.0166e-07  9.8945e-02  0.0000e+00  0.0000e+00  3.9423e-12
Flow time = 3s, time step = 15
2985 more time steps

Updating solution at time level N... done.
Injecting 1734 particle parcels with mass 2e-11 at t = 3

Advancing DPM injections ....
number tracked = 24527, escaped = 0, aborted = 0, trapped = 281, evaporated = 0, incomplete = 0, incomplete_parallel = 0

  iter     time/iter
Volume Averaged Variable at (3.500000 4.460000 1.200000) is 0.000000e+00
  step  flow-time  volflow_or  volflow_in volflow_cor     temp_p1    temp_max pressure_or pressure_dif pressure_cor mass_balance heat_balance      dpm_p2      dpm_or     dpm_cor
    16  3.2000e+00 -2.1069e+00  2.1019e+00 -1.0800e-01  2.9410e+02  3.6344e+02  5.2215e+00  5.0006e+00  2.2091e-01  1.0166e-07  9.8945e-02  0.0000e+00  0.0000e+00  4.1957e-12
Flow time = 3.2s, time step = 16
2984 more time steps

Updating solution at time level N... done.
Injecting 1734 particle parcels with mass 2e-11 at t = 3.2

Advancing DPM injections ....
number tracked = 25980, escaped = 0, aborted = 0, trapped = 265, evaporated = 0, incomplete = 0, incomplete_parallel = 0

  iter     time/iter
Volume Averaged Variable at (3.500000 4.460000 1.200000) is 0.000000e+00
  step  flow-time  volflow_or  volflow_in volflow_cor     temp_p1    temp_max pressure_or pressure_dif pressure_cor mass_balance heat_balance      dpm_p2      dpm_or     dpm_cor
    17  3.4000e+00 -2.1069e+00  2.1019e+00 -1.0800e-01  2.9410e+02  3.6344e+02  5.2215e+00  5.0006e+00  2.2091e-01  1.0166e-07  9.8945e-02  0.0000e+00  0.0000e+00  4.4490e-12
Flow time = 3.4s, time step = 17
2983 more time steps

Updating solution at time level N... done.
Injecting 1734 particle parcels with mass 2e-11 at t = 3.4

Advancing DPM injections ....
number tracked = 27449, escaped = 0, aborted = 0, trapped = 241, evaporated = 0, incomplete = 0, incomplete_parallel = 0

  iter     time/iter
Volume Averaged Variable at (3.500000 4.460000 1.200000) is 0.000000e+00
  step  flow-time  volflow_or  volflow_in volflow_cor     temp_p1    temp_max pressure_or pressure_dif pressure_cor mass_balance heat_balance      dpm_p2      dpm_or     dpm_cor
    18  3.6000e+00 -2.1069e+00  2.1019e+00 -1.0800e-01  2.9410e+02  3.6344e+02  5.2215e+00  5.0006e+00  2.2091e-01  1.0166e-07  9.8945e-02  0.0000e+00  0.0000e+00  4.7034e-12
Flow time = 3.6s, time step = 18
2982 more time steps

Updating solution at time level N... done.
Injecting 1734 particle parcels with mass 2e-11 at t = 3.6

Advancing DPM injections ....
number tracked = 28942, escaped = 1, aborted = 0, trapped = 245, evaporated = 0, incomplete = 0, incomplete_parallel = 0

  iter     time/iter
Volume Averaged Variable at (3.500000 4.460000 1.200000) is 0.000000e+00
  step  flow-time  volflow_or  volflow_in volflow_cor     temp_p1    temp_max pressure_or pressure_dif pressure_cor mass_balance heat_balance      dpm_p2      dpm_or     dpm_cor
    19  3.8000e+00 -2.1069e+00  2.1019e+00 -1.0800e-01  2.9410e+02  3.6344e+02  5.2215e+00  5.0006e+00  2.2091e-01  1.0166e-07  9.8945e-02  0.0000e+00  0.0000e+00  4.9607e-12
Flow time = 3.8s, time step = 19
2981 more time steps

Updating solution at time level N... done.
Injecting 1734 particle parcels with mass 2e-11 at t = 3.8

Advancing DPM injections ....
number tracked = 30430, escaped = 0, aborted = 0, trapped = 261, evaporated = 0, incomplete = 0, incomplete_parallel = 0

  iter     time/iter
Volume Averaged Variable at (3.500000 4.460000 1.200000) is 0.000000e+00
/file/read-macros controlruntime.scm
Loading "././controlruntime.scm"
Done.

> 
  step  flow-time  volflow_or  volflow_in volflow_cor     temp_p1    temp_max pressure_or pressure_dif pressure_cor mass_balance heat_balance      dpm_p2      dpm_or     dpm_cor
    20  4.0000e+00 -2.1069e+00  2.1019e+00 -1.0800e-01  2.9410e+02  3.6344e+02  5.2215e+00  5.0006e+00  2.2091e-01  1.0166e-07  9.8945e-02  0.0000e+00  0.0000e+00  5.2145e-12
Flow time = 4s, time step = 20
2980 more time steps

Updating solution at time level N... done.
Injecting 1734 particle parcels with mass 2e-11 at t = 4

Advancing DPM injections ....
number tracked = 31903, escaped = 0, aborted = 0, trapped = 268, evaporated = 0, incomplete = 0, incomplete_parallel = 0

  iter     time/iter
Volume Averaged Variable at (3.500000 4.460000 1.200000) is 0.000000e+00
  step  flow-time  volflow_or  volflow_in volflow_cor     temp_p1    temp_max pressure_or pressure_dif pressure_cor mass_balance heat_balance      dpm_p2      dpm_or     dpm_cor
    21  4.2000e+00 -2.1069e+00  2.1019e+00 -1.0800e-01  2.9410e+02  3.6344e+02  5.2215e+00  5.0006e+00  2.2091e-01  1.0166e-07  9.8945e-02  0.0000e+00  0.0000e+00  5.4668e-12
Flow time = 4.2s, time step = 21
2979 more time steps

Updating solution at time level N... done.
Injecting 1734 particle parcels with mass 2e-11 at t = 4.2

Advancing DPM injections ....
number tracked = 33369, escaped = 1, aborted = 0, trapped = 254, evaporated = 0, incomplete = 0, incomplete_parallel = 0

  iter     time/iter
Volume Averaged Variable at (3.500000 4.460000 1.200000) is 0.000000e+00
  step  flow-time  volflow_or  volflow_in volflow_cor     temp_p1    temp_max pressure_or pressure_dif pressure_cor mass_balance heat_balance      dpm_p2      dpm_or     dpm_cor
    22  4.4000e+00 -2.1069e+00  2.1019e+00 -1.0800e-01  2.9410e+02  3.6344e+02  5.2215e+00  5.0006e+00  2.2091e-01  1.0166e-07  9.8945e-02  0.0000e+00  0.0000e+00  5.7233e-12
Flow time = 4.4s, time step = 22
2978 more time steps

Updating solution at time level N... done.
Injecting 1734 particle parcels with mass 2e-11 at t = 4.4

Advancing DPM injections ....
number tracked = 34848, escaped = 1, aborted = 0, trapped = 263, evaporated = 0, incomplete = 0, incomplete_parallel = 0

  iter     time/iter
Volume Averaged Variable at (3.500000 4.460000 1.200000) is 0.000000e+00
  step  flow-time  volflow_or  volflow_in volflow_cor     temp_p1    temp_max pressure_or pressure_dif pressure_cor mass_balance heat_balance      dpm_p2      dpm_or     dpm_cor
    23  4.6000e+00 -2.1069e+00  2.1019e+00 -1.0800e-01  2.9410e+02  3.6344e+02  5.2215e+00  5.0006e+00  2.2091e-01  1.0166e-07  9.8945e-02  0.0000e+00  0.0000e+00  5.9770e-12
Flow time = 4.600000000000001s, time step = 23
2977 more time steps

Updating solution at time level N... done.
Injecting 1734 particle parcels with mass 2e-11 at t = 4.6

Advancing DPM injections ....
number tracked = 36318, escaped = 2, aborted = 0, trapped = 296, evaporated = 0, incomplete = 0, incomplete_parallel = 0

  iter     time/iter
Volume Averaged Variable at (3.500000 4.460000 1.200000) is 0.000000e+00
  step  flow-time  volflow_or  volflow_in volflow_cor     temp_p1    temp_max pressure_or pressure_dif pressure_cor mass_balance heat_balance      dpm_p2      dpm_or     dpm_cor
    24  4.8000e+00 -2.1069e+00  2.1019e+00 -1.0800e-01  2.9410e+02  3.6344e+02  5.2215e+00  5.0006e+00  2.2091e-01  1.0166e-07  9.8945e-02  0.0000e+00  0.0000e+00  6.2259e-12
Flow time = 4.800000000000001s, time step = 24
2976 more time steps

Updating solution at time level N... done.
Injecting 1734 particle parcels with mass 2e-11 at t = 4.8

Advancing DPM injections ....
number tracked = 37754, escaped = 1, aborted = 0, trapped = 279, evaporated = 0, incomplete = 0, incomplete_parallel = 0

  iter     time/iter
Volume Averaged Variable at (3.500000 4.460000 1.200000) is 0.000000e+00
  step  flow-time  volflow_or  volflow_in volflow_cor     temp_p1    temp_max pressure_or pressure_dif pressure_cor mass_balance heat_balance      dpm_p2      dpm_or     dpm_cor
    25  5.0000e+00 -2.1069e+00  2.1019e+00 -1.0800e-01  2.9410e+02  3.6344e+02  5.2215e+00  5.0006e+00  2.2091e-01  1.0166e-07  9.8945e-02  0.0000e+00  0.0000e+00  6.4733e-12
Flow time = 5s, time step = 25
2975 more time steps

Updating solution at time level N... done.
Injecting 1734 particle parcels with mass 2e-11 at t = 5

Advancing DPM injections ....
number tracked = 39208, escaped = 3, aborted = 0, trapped = 273, evaporated = 0, incomplete = 0, incomplete_parallel = 0

  iter     time/iter
Volume Averaged Variable at (3.500000 4.460000 1.200000) is 0.000000e+00
  step  flow-time  volflow_or  volflow_in volflow_cor     temp_p1    temp_max pressure_or pressure_dif pressure_cor mass_balance heat_balance      dpm_p2      dpm_or     dpm_cor
    26  5.2000e+00 -2.1069e+00  2.1019e+00 -1.0800e-01  2.9410e+02  3.6344e+02  5.2215e+00  5.0006e+00  2.2091e-01  1.0166e-07  9.8945e-02  0.0000e+00  0.0000e+00  6.7249e-12
Flow time = 5.2s, time step = 26
2974 more time steps

Updating solution at time level N... done.
Injecting 1734 particle parcels with mass 2e-11 at t = 5.2

Advancing DPM injections ....
number tracked = 40666, escaped = 1, aborted = 0, trapped = 270, evaporated = 0, incomplete = 0, incomplete_parallel = 0

  iter     time/iter
Volume Averaged Variable at (3.500000 4.460000 1.200000) is 0.000000e+00
  step  flow-time  volflow_or  volflow_in volflow_cor     temp_p1    temp_max pressure_or pressure_dif pressure_cor mass_balance heat_balance      dpm_p2      dpm_or     dpm_cor
    27  5.4000e+00 -2.1069e+00  2.1019e+00 -1.0800e-01  2.9410e+02  3.6344e+02  5.2215e+00  5.0006e+00  2.2091e-01  1.0166e-07  9.8945e-02  0.0000e+00  0.0000e+00  6.9760e-12
Flow time = 5.4s, time step = 27
2973 more time steps

Updating solution at time level N... done.
Injecting 1734 particle parcels with mass 2e-11 at t = 5.4

Advancing DPM injections ....
number tracked = 42129, escaped = 6, aborted = 0, trapped = 254, evaporated = 0, incomplete = 0, incomplete_parallel = 0

  iter     time/iter
Volume Averaged Variable at (3.500000 4.460000 1.200000) is 0.000000e+00
  step  flow-time  volflow_or  volflow_in volflow_cor     temp_p1    temp_max pressure_or pressure_dif pressure_cor mass_balance heat_balance      dpm_p2      dpm_or     dpm_cor
    28  5.6000e+00 -2.1069e+00  2.1019e+00 -1.0800e-01  2.9410e+02  3.6344e+02  5.2215e+00  5.0006e+00  2.2091e-01  1.0166e-07  9.8945e-02  0.0000e+00  0.0000e+00  7.2307e-12
Flow time = 5.600000000000001s, time step = 28
2972 more time steps

Updating solution at time level N... done.
Injecting 1734 particle parcels with mass 2e-11 at t = 5.6

Advancing DPM injections ....
number tracked = 43603, escaped = 1, aborted = 0, trapped = 279, evaporated = 0, incomplete = 0, incomplete_parallel = 0

  iter     time/iter
Volume Averaged Variable at (3.500000 4.460000 1.200000) is 0.000000e+00
  step  flow-time  volflow_or  volflow_in volflow_cor     temp_p1    temp_max pressure_or pressure_dif pressure_cor mass_balance heat_balance      dpm_p2      dpm_or     dpm_cor
    29  5.8000e+00 -2.1069e+00  2.1019e+00 -1.0800e-01  2.9410e+02  3.6344e+02  5.2215e+00  5.0006e+00  2.2091e-01  1.0166e-07  9.8945e-02  0.0000e+00  0.0000e+00  7.4814e-12
Flow time = 5.800000000000001s, time step = 29
2971 more time steps

Updating solution at time level N... done.
Injecting 1734 particle parcels with mass 2e-11 at t = 5.8

Advancing DPM injections ....
number tracked = 45057, escaped = 2, aborted = 0, trapped = 277, evaporated = 0, incomplete = 0, incomplete_parallel = 0

  iter     time/iter
Volume Averaged Variable at (3.500000 4.460000 1.200000) is 0.000000e+00
/file/read-macros controlruntime.scm
Loading "././controlruntime.scm"
Done.

> 
  step  flow-time  volflow_or  volflow_in volflow_cor     temp_p1    temp_max pressure_or pressure_dif pressure_cor mass_balance heat_balance      dpm_p2      dpm_or     dpm_cor
    30  6.0000e+00 -2.1069e+00  2.1019e+00 -1.0800e-01  2.9410e+02  3.6344e+02  5.2215e+00  5.0006e+00  2.2091e-01  1.0166e-07  9.8945e-02  0.0000e+00  0.0000e+00  7.7319e-12
Flow time = 6s, time step = 30
2970 more time steps

Updating solution at time level N... done.
Injecting 1734 particle parcels with mass 2e-11 at t = 6

Advancing DPM injections ....
number tracked = 46512, escaped = 7, aborted = 0, trapped = 283, evaporated = 0, incomplete = 0, incomplete_parallel = 0

  iter     time/iter
Volume Averaged Variable at (3.500000 4.460000 1.200000) is 0.000000e+00
  step  flow-time  volflow_or  volflow_in volflow_cor     temp_p1    temp_max pressure_or pressure_dif pressure_cor mass_balance heat_balance      dpm_p2      dpm_or     dpm_cor
    31  6.2000e+00 -2.1069e+00  2.1019e+00 -1.0800e-01  2.9410e+02  3.6344e+02  5.2215e+00  5.0006e+00  2.2091e-01  1.0166e-07  9.8945e-02  0.0000e+00  0.0000e+00  7.9830e-12
Flow time = 6.2s, time step = 31
2969 more time steps

Updating solution at time level N... done.
Injecting 1734 particle parcels with mass 2e-11 at t = 6.2

Advancing DPM injections ....
number tracked = 47956, escaped = 13, aborted = 0, trapped = 282, evaporated = 0, incomplete = 0, incomplete_parallel = 0

  iter     time/iter
Volume Averaged Variable at (3.500000 4.460000 1.200000) is 0.000000e+00
  step  flow-time  volflow_or  volflow_in volflow_cor     temp_p1    temp_max pressure_or pressure_dif pressure_cor mass_balance heat_balance      dpm_p2      dpm_or     dpm_cor
    32  6.4000e+00 -2.1069e+00  2.1019e+00 -1.0800e-01  2.9410e+02  3.6344e+02  5.2215e+00  5.0006e+00  2.2091e-01  1.0166e-07  9.8945e-02  0.0000e+00  0.0000e+00  8.2327e-12
Flow time = 6.4s, time step = 32
2968 more time steps

Updating solution at time level N... done.
Injecting 1734 particle parcels with mass 2e-11 at t = 6.4

Advancing DPM injections ....
number tracked = 49395, escaped = 10, aborted = 0, trapped = 296, evaporated = 0, incomplete = 0, incomplete_parallel = 0

  iter     time/iter
Volume Averaged Variable at (3.500000 4.460000 1.200000) is 0.000000e+00
  step  flow-time  volflow_or  volflow_in volflow_cor     temp_p1    temp_max pressure_or pressure_dif pressure_cor mass_balance heat_balance      dpm_p2      dpm_or     dpm_cor
    33  6.6000e+00 -2.1069e+00  2.1019e+00 -1.0800e-01  2.9410e+02  3.6344e+02  5.2215e+00  5.0006e+00  2.2091e-01  1.0166e-07  9.8945e-02  0.0000e+00  0.0000e+00  8.4784e-12
Flow time = 6.600000000000001s, time step = 33
2967 more time steps

Updating solution at time level N... done.
Injecting 1734 particle parcels with mass 2e-11 at t = 6.6

Advancing DPM injections ....
number tracked = 50823, escaped = 10, aborted = 0, trapped = 314, evaporated = 0, incomplete = 0, incomplete_parallel = 0

  iter     time/iter
Volume Averaged Variable at (3.500000 4.460000 1.200000) is 0.000000e+00
  step  flow-time  volflow_or  volflow_in volflow_cor     temp_p1    temp_max pressure_or pressure_dif pressure_cor mass_balance heat_balance      dpm_p2      dpm_or     dpm_cor
    34  6.8000e+00 -2.1069e+00  2.1019e+00 -1.0800e-01  2.9410e+02  3.6344e+02  5.2215e+00  5.0006e+00  2.2091e-01  1.0166e-07  9.8945e-02  0.0000e+00  0.0000e+00  8.7231e-12
Flow time = 6.800000000000001s, time step = 34
2966 more time steps

Updating solution at time level N... done.
Injecting 1734 particle parcels with mass 2e-11 at t = 6.8

Advancing DPM injections ....
number tracked = 52233, escaped = 19, aborted = 0, trapped = 301, evaporated = 0, incomplete = 0, incomplete_parallel = 0

  iter     time/iter
Volume Averaged Variable at (3.500000 4.460000 1.200000) is 0.000000e+00
  step  flow-time  volflow_or  volflow_in volflow_cor     temp_p1    temp_max pressure_or pressure_dif pressure_cor mass_balance heat_balance      dpm_p2      dpm_or     dpm_cor
    35  7.0000e+00 -2.1069e+00  2.1019e+00 -1.0800e-01  2.9410e+02  3.6344e+02  5.2215e+00  5.0006e+00  2.2091e-01  1.0166e-07  9.8945e-02  0.0000e+00  0.0000e+00  8.9672e-12
Flow time = 7s, time step = 35
2965 more time steps

Updating solution at time level N... done.
Injecting 1734 particle parcels with mass 2e-11 at t = 7

Advancing DPM injections ....
number tracked = 53647, escaped = 17, aborted = 0, trapped = 242, evaporated = 0, incomplete = 0, incomplete_parallel = 0

  iter     time/iter
Volume Averaged Variable at (3.500000 4.460000 1.200000) is 0.000000e+00
  step  flow-time  volflow_or  volflow_in volflow_cor     temp_p1    temp_max pressure_or pressure_dif pressure_cor mass_balance heat_balance      dpm_p2      dpm_or     dpm_cor
    36  7.2000e+00 -2.1069e+00  2.1019e+00 -1.0800e-01  2.9410e+02  3.6344e+02  5.2215e+00  5.0006e+00  2.2091e-01  1.0166e-07  9.8945e-02  0.0000e+00  0.0000e+00  9.2157e-12
Flow time = 7.2s, time step = 36
2964 more time steps

Updating solution at time level N... done.
Injecting 1734 particle parcels with mass 2e-11 at t = 7.2

Advancing DPM injections ....
number tracked = 55122, escaped = 11, aborted = 0, trapped = 259, evaporated = 0, incomplete = 0, incomplete_parallel = 0

  iter     time/iter
Volume Averaged Variable at (3.500000 4.460000 1.200000) is 0.000000e+00
  step  flow-time  volflow_or  volflow_in volflow_cor     temp_p1    temp_max pressure_or pressure_dif pressure_cor mass_balance heat_balance      dpm_p2      dpm_or     dpm_cor
    37  7.4000e+00 -2.1069e+00  2.1019e+00 -1.0800e-01  2.9410e+02  3.6344e+02  5.2215e+00  5.0006e+00  2.2091e-01  1.0166e-07  9.8945e-02  0.0000e+00  0.0000e+00  9.4734e-12
Flow time = 7.4s, time step = 37
2963 more time steps

Updating solution at time level N... done.
Injecting 1734 particle parcels with mass 2e-11 at t = 7.4

Advancing DPM injections ....
number tracked = 56586, escaped = 17, aborted = 0, trapped = 291, evaporated = 0, incomplete = 0, incomplete_parallel = 0

  iter     time/iter
Volume Averaged Variable at (3.500000 4.460000 1.200000) is 0.000000e+00
  step  flow-time  volflow_or  volflow_in volflow_cor     temp_p1    temp_max pressure_or pressure_dif pressure_cor mass_balance heat_balance      dpm_p2      dpm_or     dpm_cor
    38  7.6000e+00 -2.1069e+00  2.1019e+00 -1.0800e-01  2.9410e+02  3.6344e+02  5.2215e+00  5.0006e+00  2.2091e-01  1.0166e-07  9.8945e-02  0.0000e+00  0.0000e+00  9.7188e-12
Flow time = 7.600000000000001s, time step = 38
2962 more time steps

Updating solution at time level N... done.
Injecting 1734 particle parcels with mass 2e-11 at t = 7.6

Advancing DPM injections ....
number tracked = 58012, escaped = 28, aborted = 0, trapped = 329, evaporated = 0, incomplete = 0, incomplete_parallel = 0

  iter     time/iter
Volume Averaged Variable at (3.500000 4.460000 1.200000) is 0.000000e+00
  step  flow-time  volflow_or  volflow_in volflow_cor     temp_p1    temp_max pressure_or pressure_dif pressure_cor mass_balance heat_balance      dpm_p2      dpm_or     dpm_cor
    39  7.8000e+00 -2.1069e+00  2.1019e+00 -1.0800e-01  2.9410e+02  3.6344e+02  5.2215e+00  5.0006e+00  2.2091e-01  1.0166e-07  9.8945e-02  0.0000e+00  0.0000e+00  9.9584e-12
Flow time = 7.800000000000001s, time step = 39
2961 more time steps

Updating solution at time level N... done.
Injecting 1734 particle parcels with mass 2e-11 at t = 7.8

Advancing DPM injections ....
number tracked = 59389, escaped = 18, aborted = 0, trapped = 291, evaporated = 0, incomplete = 0, incomplete_parallel = 0

  iter     time/iter
Volume Averaged Variable at (3.500000 4.460000 1.200000) is 0.000000e+00
/file/read-macros controlruntime.scm
Loading "././controlruntime.scm"
Done.

> 
[...]
  2975  5.9500e+02 -2.1069e+00  2.1019e+00 -1.0800e-01  2.9410e+02  3.6344e+02  5.2215e+00  5.0006e+00  2.2091e-01  1.0166e-07  9.8945e-02  0.0000e+00  0.0000e+00  8.1542e-11
Flow time = 595s, time step = 2975
25 more time steps

Updating solution at time level N... done.
Injecting 1734 particle parcels with mass 2e-11 at t = 595

Advancing DPM injections ....
number tracked = 473693, escaped = 190, aborted = 0, trapped = 1560, evaporated = 0, incomplete = 0, incomplete_parallel = 0

  iter     time/iter
Volume Averaged Variable at (3.500000 4.460000 1.200000) is 0.000000e+00
  step  flow-time  volflow_or  volflow_in volflow_cor     temp_p1    temp_max pressure_or pressure_dif pressure_cor mass_balance heat_balance      dpm_p2      dpm_or     dpm_cor
  2976  5.9520e+02 -2.1069e+00  2.1019e+00 -1.0800e-01  2.9410e+02  3.6344e+02  5.2215e+00  5.0006e+00  2.2091e-01  1.0166e-07  9.8945e-02  0.0000e+00  0.0000e+00  8.1537e-11
Flow time = 595.2s, time step = 2976
24 more time steps

Updating solution at time level N... done.
Injecting 1734 particle parcels with mass 2e-11 at t = 595.2

Advancing DPM injections ....
number tracked = 473677, escaped = 186, aborted = 0, trapped = 1458, evaporated = 0, incomplete = 0, incomplete_parallel = 0

  iter     time/iter
Volume Averaged Variable at (3.500000 4.460000 1.200000) is 0.000000e+00
  step  flow-time  volflow_or  volflow_in volflow_cor     temp_p1    temp_max pressure_or pressure_dif pressure_cor mass_balance heat_balance      dpm_p2      dpm_or     dpm_cor
  2977  5.9540e+02 -2.1069e+00  2.1019e+00 -1.0800e-01  2.9410e+02  3.6344e+02  5.2215e+00  5.0006e+00  2.2091e-01  1.0166e-07  9.8945e-02  0.0000e+00  0.0000e+00  8.1550e-11
Flow time = 595.4s, time step = 2977
23 more time steps

Updating solution at time level N... done.
Injecting 1734 particle parcels with mass 2e-11 at t = 595.4

Advancing DPM injections ....
number tracked = 473767, escaped = 215, aborted = 0, trapped = 1452, evaporated = 0, incomplete = 0, incomplete_parallel = 0

  iter     time/iter
Volume Averaged Variable at (3.500000 4.460000 1.200000) is 0.000000e+00
  step  flow-time  volflow_or  volflow_in volflow_cor     temp_p1    temp_max pressure_or pressure_dif pressure_cor mass_balance heat_balance      dpm_p2      dpm_or     dpm_cor
  2978  5.9560e+02 -2.1069e+00  2.1019e+00 -1.0800e-01  2.9410e+02  3.6344e+02  5.2215e+00  5.0006e+00  2.2091e-01  1.0166e-07  9.8945e-02  0.0000e+00  0.0000e+00  8.1564e-11
Flow time = 595.6s, time step = 2978
22 more time steps

Updating solution at time level N... done.
Injecting 1734 particle parcels with mass 2e-11 at t = 595.6

Advancing DPM injections ....
number tracked = 473834, escaped = 199, aborted = 0, trapped = 1503, evaporated = 0, incomplete = 0, incomplete_parallel = 0

  iter     time/iter
Volume Averaged Variable at (3.500000 4.460000 1.200000) is 0.000000e+00
  step  flow-time  volflow_or  volflow_in volflow_cor     temp_p1    temp_max pressure_or pressure_dif pressure_cor mass_balance heat_balance      dpm_p2      dpm_or     dpm_cor
  2979  5.9580e+02 -2.1069e+00  2.1019e+00 -1.0800e-01  2.9410e+02  3.6344e+02  5.2215e+00  5.0006e+00  2.2091e-01  1.0166e-07  9.8945e-02  0.0000e+00  0.0000e+00  8.1568e-11
Flow time = 595.8000000000001s, time step = 2979
21 more time steps

Updating solution at time level N... done.
Injecting 1734 particle parcels with mass 2e-11 at t = 595.8

Advancing DPM injections ....
number tracked = 473866, escaped = 189, aborted = 0, trapped = 1545, evaporated = 0, incomplete = 0, incomplete_parallel = 0

  iter     time/iter
Volume Averaged Variable at (3.500000 4.460000 1.200000) is 0.000000e+00
/file/read-macros controlruntime.scm
Loading "././controlruntime.scm"
Done.

> 
  step  flow-time  volflow_or  volflow_in volflow_cor     temp_p1    temp_max pressure_or pressure_dif pressure_cor mass_balance heat_balance      dpm_p2      dpm_or     dpm_cor
  2980  5.9600e+02 -2.1069e+00  2.1019e+00 -1.0800e-01  2.9410e+02  3.6344e+02  5.2215e+00  5.0006e+00  2.2091e-01  1.0166e-07  9.8945e-02  0.0000e+00  0.0000e+00  8.1569e-11
Flow time = 596s, time step = 2980
20 more time steps

Updating solution at time level N... done.
Injecting 1734 particle parcels with mass 2e-11 at t = 596

Advancing DPM injections ....
number tracked = 473866, escaped = 206, aborted = 0, trapped = 1529, evaporated = 0, incomplete = 0, incomplete_parallel = 0

  iter     time/iter
Volume Averaged Variable at (3.500000 4.460000 1.200000) is 0.000000e+00
  step  flow-time  volflow_or  volflow_in volflow_cor     temp_p1    temp_max pressure_or pressure_dif pressure_cor mass_balance heat_balance      dpm_p2      dpm_or     dpm_cor
  2981  5.9620e+02 -2.1069e+00  2.1019e+00 -1.0800e-01  2.9410e+02  3.6344e+02  5.2215e+00  5.0006e+00  2.2091e-01  1.0166e-07  9.8945e-02  0.0000e+00  0.0000e+00  8.1567e-11
Flow time = 596.2s, time step = 2981
19 more time steps

Updating solution at time level N... done.
Injecting 1734 particle parcels with mass 2e-11 at t = 596.2

Advancing DPM injections ....
number tracked = 473865, escaped = 179, aborted = 0, trapped = 1536, evaporated = 0, incomplete = 0, incomplete_parallel = 0

  iter     time/iter
Volume Averaged Variable at (3.500000 4.460000 1.200000) is 0.000000e+00
  step  flow-time  volflow_or  volflow_in volflow_cor     temp_p1    temp_max pressure_or pressure_dif pressure_cor mass_balance heat_balance      dpm_p2      dpm_or     dpm_cor
  2982  5.9640e+02 -2.1069e+00  2.1019e+00 -1.0800e-01  2.9410e+02  3.6344e+02  5.2215e+00  5.0006e+00  2.2091e-01  1.0166e-07  9.8945e-02  0.0000e+00  0.0000e+00  8.1573e-11
Flow time = 596.4s, time step = 2982
18 more time steps

Updating solution at time level N... done.
Injecting 1734 particle parcels with mass 2e-11 at t = 596.4

Advancing DPM injections ....
number tracked = 473884, escaped = 191, aborted = 0, trapped = 1493, evaporated = 0, incomplete = 0, incomplete_parallel = 0

  iter     time/iter
Volume Averaged Variable at (3.500000 4.460000 1.200000) is 0.000000e+00
  step  flow-time  volflow_or  volflow_in volflow_cor     temp_p1    temp_max pressure_or pressure_dif pressure_cor mass_balance heat_balance      dpm_p2      dpm_or     dpm_cor
  2983  5.9660e+02 -2.1069e+00  2.1019e+00 -1.0800e-01  2.9410e+02  3.6344e+02  5.2215e+00  5.0006e+00  2.2091e-01  1.0166e-07  9.8945e-02  0.0000e+00  0.0000e+00  8.1578e-11
Flow time = 596.6s, time step = 2983
17 more time steps

Updating solution at time level N... done.
Injecting 1734 particle parcels with mass 2e-11 at t = 596.6

Advancing DPM injections ....
number tracked = 473934, escaped = 180, aborted = 0, trapped = 1633, evaporated = 0, incomplete = 0, incomplete_parallel = 0

  iter     time/iter
Volume Averaged Variable at (3.500000 4.460000 1.200000) is 0.000000e+00
  step  flow-time  volflow_or  volflow_in volflow_cor     temp_p1    temp_max pressure_or pressure_dif pressure_cor mass_balance heat_balance      dpm_p2      dpm_or     dpm_cor
  2984  5.9680e+02 -2.1069e+00  2.1019e+00 -1.0800e-01  2.9410e+02  3.6344e+02  5.2215e+00  5.0006e+00  2.2091e-01  1.0166e-07  9.8945e-02  0.0000e+00  0.0000e+00  8.1569e-11
Flow time = 596.8000000000001s, time step = 2984
16 more time steps

Updating solution at time level N... done.
Injecting 1734 particle parcels with mass 2e-11 at t = 596.8

Advancing DPM injections ....
number tracked = 473855, escaped = 200, aborted = 0, trapped = 1515, evaporated = 0, incomplete = 0, incomplete_parallel = 0

  iter     time/iter
Volume Averaged Variable at (3.500000 4.460000 1.200000) is 0.000000e+00
  step  flow-time  volflow_or  volflow_in volflow_cor     temp_p1    temp_max pressure_or pressure_dif pressure_cor mass_balance heat_balance      dpm_p2      dpm_or     dpm_cor
  2985  5.9700e+02 -2.1069e+00  2.1019e+00 -1.0800e-01  2.9410e+02  3.6344e+02  5.2215e+00  5.0006e+00  2.2091e-01  1.0166e-07  9.8945e-02  0.0000e+00  0.0000e+00  8.1569e-11
Flow time = 597s, time step = 2985
15 more time steps

Updating solution at time level N... done.
Injecting 1734 particle parcels with mass 2e-11 at t = 597

Advancing DPM injections ....
number tracked = 473874, escaped = 179, aborted = 0, trapped = 1525, evaporated = 0, incomplete = 0, incomplete_parallel = 0

  iter     time/iter
Volume Averaged Variable at (3.500000 4.460000 1.200000) is 0.000000e+00
  step  flow-time  volflow_or  volflow_in volflow_cor     temp_p1    temp_max pressure_or pressure_dif pressure_cor mass_balance heat_balance      dpm_p2      dpm_or     dpm_cor
  2986  5.9720e+02 -2.1069e+00  2.1019e+00 -1.0800e-01  2.9410e+02  3.6344e+02  5.2215e+00  5.0006e+00  2.2091e-01  1.0166e-07  9.8945e-02  0.0000e+00  0.0000e+00  8.1571e-11
Flow time = 597.2s, time step = 2986
14 more time steps

Updating solution at time level N... done.
Injecting 1734 particle parcels with mass 2e-11 at t = 597.2

Advancing DPM injections ....
number tracked = 473904, escaped = 176, aborted = 0, trapped = 1556, evaporated = 0, incomplete = 0, incomplete_parallel = 0

  iter     time/iter
Volume Averaged Variable at (3.500000 4.460000 1.200000) is 0.000000e+00
  step  flow-time  volflow_or  volflow_in volflow_cor     temp_p1    temp_max pressure_or pressure_dif pressure_cor mass_balance heat_balance      dpm_p2      dpm_or     dpm_cor
  2987  5.9740e+02 -2.1069e+00  2.1019e+00 -1.0800e-01  2.9410e+02  3.6344e+02  5.2215e+00  5.0006e+00  2.2091e-01  1.0166e-07  9.8945e-02  0.0000e+00  0.0000e+00  8.1571e-11
Flow time = 597.4s, time step = 2987
13 more time steps

Updating solution at time level N... done.
Injecting 1734 particle parcels with mass 2e-11 at t = 597.4

Advancing DPM injections ....
number tracked = 473906, escaped = 185, aborted = 0, trapped = 1555, evaporated = 0, incomplete = 0, incomplete_parallel = 0

  iter     time/iter
Volume Averaged Variable at (3.500000 4.460000 1.200000) is 0.000000e+00
  step  flow-time  volflow_or  volflow_in volflow_cor     temp_p1    temp_max pressure_or pressure_dif pressure_cor mass_balance heat_balance      dpm_p2      dpm_or     dpm_cor
  2988  5.9760e+02 -2.1069e+00  2.1019e+00 -1.0800e-01  2.9410e+02  3.6344e+02  5.2215e+00  5.0006e+00  2.2091e-01  1.0166e-07  9.8945e-02  0.0000e+00  0.0000e+00  8.1570e-11
Flow time = 597.6s, time step = 2988
12 more time steps

Updating solution at time level N... done.
Injecting 1734 particle parcels with mass 2e-11 at t = 597.6

Advancing DPM injections ....
number tracked = 473900, escaped = 166, aborted = 0, trapped = 1519, evaporated = 0, incomplete = 0, incomplete_parallel = 0

  iter     time/iter
Volume Averaged Variable at (3.500000 4.460000 1.200000) is 0.000000e+00
  step  flow-time  volflow_or  volflow_in volflow_cor     temp_p1    temp_max pressure_or pressure_dif pressure_cor mass_balance heat_balance      dpm_p2      dpm_or     dpm_cor
  2989  5.9780e+02 -2.1069e+00  2.1019e+00 -1.0800e-01  2.9410e+02  3.6344e+02  5.2215e+00  5.0006e+00  2.2091e-01  1.0166e-07  9.8945e-02  0.0000e+00  0.0000e+00  8.1575e-11
Flow time = 597.8000000000001s, time step = 2989
11 more time steps

Updating solution at time level N... done.
Injecting 1734 particle parcels with mass 2e-11 at t = 597.8

Advancing DPM injections ....
number tracked = 473949, escaped = 193, aborted = 0, trapped = 1507, evaporated = 0, incomplete = 0, incomplete_parallel = 0

  iter     time/iter
Volume Averaged Variable at (3.500000 4.460000 1.200000) is 0.000000e+00
/file/read-macros controlruntime.scm
Loading "././controlruntime.scm"
Done.

> 
  step  flow-time  volflow_or  volflow_in volflow_cor     temp_p1    temp_max pressure_or pressure_dif pressure_cor mass_balance heat_balance      dpm_p2      dpm_or     dpm_cor
  2990  5.9800e+02 -2.1069e+00  2.1019e+00 -1.0800e-01  2.9410e+02  3.6344e+02  5.2215e+00  5.0006e+00  2.2091e-01  1.0166e-07  9.8945e-02  0.0000e+00  0.0000e+00  8.1585e-11
Flow time = 598s, time step = 2990
10 more time steps

Updating solution at time level N... done.
Injecting 1734 particle parcels with mass 2e-11 at t = 598

Advancing DPM injections ....
number tracked = 473983, escaped = 177, aborted = 0, trapped = 1548, evaporated = 0, incomplete = 0, incomplete_parallel = 0

  iter     time/iter
Volume Averaged Variable at (3.500000 4.460000 1.200000) is 0.000000e+00
  step  flow-time  volflow_or  volflow_in volflow_cor     temp_p1    temp_max pressure_or pressure_dif pressure_cor mass_balance heat_balance      dpm_p2      dpm_or     dpm_cor
  2991  5.9820e+02 -2.1069e+00  2.1019e+00 -1.0800e-01  2.9410e+02  3.6344e+02  5.2215e+00  5.0006e+00  2.2091e-01  1.0166e-07  9.8945e-02  0.0000e+00  0.0000e+00  8.1584e-11
Flow time = 598.2s, time step = 2991
9 more time steps

Updating solution at time level N... done.
Injecting 1734 particle parcels with mass 2e-11 at t = 598.2

Advancing DPM injections ....
number tracked = 473992, escaped = 193, aborted = 0, trapped = 1522, evaporated = 0, incomplete = 0, incomplete_parallel = 0

  iter     time/iter
Volume Averaged Variable at (3.500000 4.460000 1.200000) is 0.000000e+00
  step  flow-time  volflow_or  volflow_in volflow_cor     temp_p1    temp_max pressure_or pressure_dif pressure_cor mass_balance heat_balance      dpm_p2      dpm_or     dpm_cor
  2992  5.9840e+02 -2.1069e+00  2.1019e+00 -1.0800e-01  2.9410e+02  3.6344e+02  5.2215e+00  5.0006e+00  2.2091e-01  1.0166e-07  9.8945e-02  0.0000e+00  0.0000e+00  8.1594e-11
Flow time = 598.4s, time step = 2992
8 more time steps

Updating solution at time level N... done.
Injecting 1734 particle parcels with mass 2e-11 at t = 598.4

Advancing DPM injections ....
number tracked = 474011, escaped = 193, aborted = 0, trapped = 1620, evaporated = 0, incomplete = 0, incomplete_parallel = 0

  iter     time/iter
Volume Averaged Variable at (3.500000 4.460000 1.200000) is 0.000000e+00
  step  flow-time  volflow_or  volflow_in volflow_cor     temp_p1    temp_max pressure_or pressure_dif pressure_cor mass_balance heat_balance      dpm_p2      dpm_or     dpm_cor
  2993  5.9860e+02 -2.1069e+00  2.1019e+00 -1.0800e-01  2.9410e+02  3.6344e+02  5.2215e+00  5.0006e+00  2.2091e-01  1.0166e-07  9.8945e-02  0.0000e+00  0.0000e+00  8.1581e-11
Flow time = 598.6s, time step = 2993
7 more time steps

Updating solution at time level N... done.
Injecting 1734 particle parcels with mass 2e-11 at t = 598.6

Advancing DPM injections ....
number tracked = 473932, escaped = 158, aborted = 0, trapped = 1506, evaporated = 0, incomplete = 0, incomplete_parallel = 0

  iter     time/iter
Volume Averaged Variable at (3.500000 4.460000 1.200000) is 0.000000e+00
  step  flow-time  volflow_or  volflow_in volflow_cor     temp_p1    temp_max pressure_or pressure_dif pressure_cor mass_balance heat_balance      dpm_p2      dpm_or     dpm_cor
  2994  5.9880e+02 -2.1069e+00  2.1019e+00 -1.0800e-01  2.9410e+02  3.6344e+02  5.2215e+00  5.0006e+00  2.2091e-01  1.0166e-07  9.8945e-02  0.0000e+00  0.0000e+00  8.1588e-11
Flow time = 598.8000000000001s, time step = 2994
6 more time steps

Updating solution at time level N... done.
Injecting 1734 particle parcels with mass 2e-11 at t = 598.8

Advancing DPM injections ....
number tracked = 474002, escaped = 196, aborted = 0, trapped = 1640, evaporated = 0, incomplete = 0, incomplete_parallel = 0

  iter     time/iter
Volume Averaged Variable at (3.500000 4.460000 1.200000) is 0.000000e+00
  step  flow-time  volflow_or  volflow_in volflow_cor     temp_p1    temp_max pressure_or pressure_dif pressure_cor mass_balance heat_balance      dpm_p2      dpm_or     dpm_cor
  2995  5.9900e+02 -2.1069e+00  2.1019e+00 -1.0800e-01  2.9410e+02  3.6344e+02  5.2215e+00  5.0006e+00  2.2091e-01  1.0166e-07  9.8945e-02  0.0000e+00  0.0000e+00  8.1581e-11
Flow time = 599s, time step = 2995
5 more time steps

Updating solution at time level N... done.
Injecting 1734 particle parcels with mass 2e-11 at t = 599

Advancing DPM injections ....
number tracked = 473900, escaped = 178, aborted = 0, trapped = 1593, evaporated = 0, incomplete = 0, incomplete_parallel = 0

  iter     time/iter
Volume Averaged Variable at (3.500000 4.460000 1.200000) is 0.000000e+00
  step  flow-time  volflow_or  volflow_in volflow_cor     temp_p1    temp_max pressure_or pressure_dif pressure_cor mass_balance heat_balance      dpm_p2      dpm_or     dpm_cor
  2996  5.9920e+02 -2.1069e+00  2.1019e+00 -1.0800e-01  2.9410e+02  3.6344e+02  5.2215e+00  5.0006e+00  2.2091e-01  1.0166e-07  9.8945e-02  0.0000e+00  0.0000e+00  8.1568e-11
Flow time = 599.2s, time step = 2996
4 more time steps

Updating solution at time level N... done.
Injecting 1734 particle parcels with mass 2e-11 at t = 599.2

Advancing DPM injections ....
number tracked = 473863, escaped = 155, aborted = 0, trapped = 1572, evaporated = 0, incomplete = 0, incomplete_parallel = 0

  iter     time/iter
Volume Averaged Variable at (3.500000 4.460000 1.200000) is 0.000000e+00
  step  flow-time  volflow_or  volflow_in volflow_cor     temp_p1    temp_max pressure_or pressure_dif pressure_cor mass_balance heat_balance      dpm_p2      dpm_or     dpm_cor
  2997  5.9940e+02 -2.1069e+00  2.1019e+00 -1.0800e-01  2.9410e+02  3.6344e+02  5.2215e+00  5.0006e+00  2.2091e-01  1.0166e-07  9.8945e-02  0.0000e+00  0.0000e+00  8.1569e-11
Flow time = 599.4s, time step = 2997
3 more time steps

Updating solution at time level N... done.
Injecting 1734 particle parcels with mass 2e-11 at t = 599.4

Advancing DPM injections ....
number tracked = 473870, escaped = 184, aborted = 0, trapped = 1538, evaporated = 0, incomplete = 0, incomplete_parallel = 0

  iter     time/iter
Volume Averaged Variable at (3.500000 4.460000 1.200000) is 0.000000e+00
  step  flow-time  volflow_or  volflow_in volflow_cor     temp_p1    temp_max pressure_or pressure_dif pressure_cor mass_balance heat_balance      dpm_p2      dpm_or     dpm_cor
  2998  5.9960e+02 -2.1069e+00  2.1019e+00 -1.0800e-01  2.9410e+02  3.6344e+02  5.2215e+00  5.0006e+00  2.2091e-01  1.0166e-07  9.8945e-02  0.0000e+00  0.0000e+00  8.1566e-11
Flow time = 599.6s, time step = 2998
2 more time steps

Updating solution at time level N... done.
Injecting 1734 particle parcels with mass 2e-11 at t = 599.6

Advancing DPM injections ....
number tracked = 473882, escaped = 198, aborted = 0, trapped = 1507, evaporated = 0, incomplete = 0, incomplete_parallel = 0

  iter     time/iter
Volume Averaged Variable at (3.500000 4.460000 1.200000) is 0.000000e+00
  step  flow-time  volflow_or  volflow_in volflow_cor     temp_p1    temp_max pressure_or pressure_dif pressure_cor mass_balance heat_balance      dpm_p2      dpm_or     dpm_cor
  2999  5.9980e+02 -2.1069e+00  2.1019e+00 -1.0800e-01  2.9410e+02  3.6344e+02  5.2215e+00  5.0006e+00  2.2091e-01  1.0166e-07  9.8945e-02  0.0000e+00  0.0000e+00  8.1571e-11
Flow time = 599.8000000000001s, time step = 2999
1 more time step

Updating solution at time level N... done.
Injecting 1734 particle parcels with mass 2e-11 at t = 599.8

Advancing DPM injections ....
number tracked = 473911, escaped = 192, aborted = 0, trapped = 1522, evaporated = 0, incomplete = 0, incomplete_parallel = 0

  iter     time/iter
Volume Averaged Variable at (3.500000 4.460000 1.200000) is 0.000000e+00
Host receiving summary from compute node zero.

Writing "| gzip -2cfv > \"OR-COR-5-03000.dat.gz\""...

Done.

/file/read-macros controlruntime.scm
Loading "././controlruntime.scm"
Done.

> 
  step  flow-time  volflow_or  volflow_in volflow_cor     temp_p1    temp_max pressure_or pressure_dif pressure_cor mass_balance heat_balance      dpm_p2      dpm_or     dpm_cor
  3000  6.0000e+02 -2.1069e+00  2.1019e+00 -1.0800e-01  2.9410e+02  3.6344e+02  5.2215e+00  5.0006e+00  2.2091e-01  1.0166e-07  9.8945e-02  0.0000e+00  0.0000e+00  8.1576e-11
Flow time = 600s, time step = 3000
, invalid command [,]
, , , 

> ;
;
; solve/dpm-update
; report/dpm-summary
;
;
;
;
; file/confirm-overwrite yes
; file/write-case OR-COR.cas.gz yes
; file/write-data OR-COR.dat.gz yes
;
;
exit 
Posting ANSYS Product Improvement Program performance data 
Done.
