/pdc/vol/ansys/19.1/v191/fluent/fluent19.1.0/bin/fluent -r19.1.0 3ddp -gu -slurm -t 72 -mpi=ibmmpi -pib -i journal.jou
/pdc/vol/ansys/19.1/v191/fluent/fluent19.1.0/cortex/lnamd64/cortex.19.1.0 -f fluent -gu -i journal.jou (fluent "3ddp -pinfiniband  -host -r19.1.0 -t72 -mpi=ibmmpi -path/pdc/vol/ansys/19.1/v191/fluent -ssh")

WARNING:
Specified graphics driver "x11" is not available on the current runtime environment.
The most appropriate graphics driver based on the current runtime environment is: "null".
Setting graphics driver to: "null".
/pdc/vol/ansys/19.1/v191/fluent/fluent19.1.0/bin/fluent -r19.1.0 3ddp -pinfiniband -host -t72 -mpi=ibmmpi -path/pdc/vol/ansys/19.1/v191/fluent -ssh -cx t02n17.pdc.kth.se:36206:34525
Starting /pdc/vol/ansys/19.1/v191/fluent/fluent19.1.0/lnamd64/3ddp_host/fluent.19.1.0 host -cx t02n17.pdc.kth.se:36206:34525 "(list (rpsetvar (QUOTE parallel/function) "fluent 3ddp -flux -node -r19.1.0 -t72 -pinfiniband -mpi=ibmmpi -ssh") (rpsetvar (QUOTE parallel/rhost) "") (rpsetvar (QUOTE parallel/ruser) "") (rpsetvar (QUOTE parallel/nprocs_string) "72") (rpsetvar (QUOTE parallel/auto-spawn?) #t) (rpsetvar (QUOTE parallel/trace-level) 0) (rpsetvar (QUOTE parallel/remote-shell) 1) (rpsetvar (QUOTE parallel/path) "/pdc/vol/ansys/19.1/v191/fluent") (rpsetvar (QUOTE parallel/hostsfile) "") )"

              Welcome to ANSYS Fluent Release 19.1

              Copyright 1987-2018 ANSYS, Inc. All Rights Reserved.
              Unauthorized use, distribution or duplication is prohibited.
              This product is subject to U.S. laws governing export and re-export.
              For full Legal Notice, see documentation.

Build Time: Apr 09 2018 13:46:05 EDT  Build Id: 10123  
 

     --------------------------------------------------------------
     This is an academic version of ANSYS FLUENT. Usage of this product
     license is limited to the terms and conditions specified in your ANSYS
     license form, additional terms section.
     --------------------------------------------------------------
Host spawning Node 0 on machine "t02n17.pdc.kth.se" (unix).
/pdc/vol/ansys/19.1/v191/fluent/fluent19.1.0/bin/fluent -r19.1.0 3ddp -flux -node -t72 -pinfiniband -mpi=ibmmpi -ssh -mport 193.10.157.118:193.10.157.118:44213:0
-- srun ibmmpi launch --
Starting /pdc/vol/ansys/19.1/v191/fluent/fluent19.1.0/multiport/mpi/lnamd64/ibmmpi/bin/mpirun -e MPI_IBV_NO_FORK_SAFE=1 -e MPI_USE_MALLOPT_MMAP_MAX=0 -prot -IBV -e MPI_HASIC_IBV=1 -srun -n 72 /pdc/vol/ansys/19.1/v191/fluent/fluent19.1.0/lnamd64/3ddp_node/fluent_mpi.19.1.0 node -mpiw ibmmpi -pic infiniband -mport 193.10.157.118:193.10.157.118:44213:0
Host 0 -- ip 193.10.157.118 -- ranks 0 - 23
Host 1 -- ip 193.10.157.125 -- ranks 24 - 47
Host 2 -- ip 193.10.157.126 -- ranks 48 - 71

 host | 0    1    2
======|================
    0 : SHM  IBV  IBV
    1 : IBV  SHM  IBV
    2 : IBV  IBV  SHM

 Prot -  All Intra-node communication is: SHM
 Prot -  All Inter-node communication is: IBV


--------------------------------------------------------------------------------------
ID      Hostname           Core   O.S.      PID          Vendor                      
--------------------------------------------------------------------------------------
n48-71  t02n31.pdc.kth.se  24/48  Linux-64  46180-46203  Intel(R) Xeon(R) E5-2690 v3 
n24-47  t02n30.pdc.kth.se  24/48  Linux-64  21305-21328  Intel(R) Xeon(R) E5-2690 v3 
n0-23   t02n17.pdc.kth.se  24/48  Linux-64  33658-33681  Intel(R) Xeon(R) E5-2690 v3 
host    t02n17.pdc.kth.se         Linux-64  33468        Intel(R) Xeon(R) E5-2690 v3 

MPI Option Selected: ibmmpi
Selected system interconnect: InfiniBand
--------------------------------------------------------------------------------------


Posting ANSYS Product Improvement Program startup data
Done.

Reading journal file journal.jou...

> ;
;
file/read-case OR-COR-3.cas.gz

Multicore SMT processors detected. Processor affinity set!

Reading "\"| gunzip -c \\\"OR-COR-3.cas.gz\\\"\""...

Buffering for file scan...



 8039712 mixed cells, zone 73, binary.
 3209832 mixed cells, zone 74, binary.
Warning: reading 24 partition grid onto 72 compute node machine;
         will auto partition.
 8039712 cell partition ids, zone 73, 24 partitions, binary.
Warning: reading 24 partition grid onto 72 compute node machine;
         will auto partition.
 3209832 cell partition ids, zone 74, 24 partitions, binary.
16656067 mixed interior faces, zone 244, binary.
 6605687 mixed interior faces, zone 245, binary.
     574 mixed wall faces, zone 77, binary.
     574 mixed wall faces, zone  2, binary.
     574 mixed wall faces, zone 78, binary.
     574 mixed wall faces, zone  3, binary.
     574 mixed wall faces, zone 79, binary.
     574 mixed wall faces, zone  4, binary.
     574 mixed wall faces, zone 80, binary.
     574 mixed wall faces, zone  5, binary.
     574 mixed wall faces, zone 81, binary.
     574 mixed wall faces, zone  6, binary.
     898 mixed wall faces, zone 82, binary.
     898 mixed wall faces, zone  7, binary.
     574 mixed wall faces, zone 83, binary.
     574 mixed wall faces, zone  8, binary.
     572 mixed wall faces, zone 84, binary.
     572 mixed wall faces, zone  9, binary.
     574 mixed wall faces, zone 85, binary.
     574 mixed wall faces, zone 10, binary.
     574 mixed wall faces, zone 86, binary.
     574 mixed wall faces, zone 11, binary.
     574 mixed wall faces, zone 87, binary.
     574 mixed wall faces, zone 12, binary.
     574 mixed wall faces, zone 88, binary.
     574 mixed wall faces, zone 13, binary.
     574 mixed wall faces, zone 89, binary.
     574 mixed wall faces, zone 14, binary.
     572 mixed wall faces, zone 90, binary.
     572 mixed wall faces, zone 15, binary.
     574 mixed wall faces, zone 91, binary.
     574 mixed wall faces, zone 16, binary.
     574 mixed wall faces, zone 92, binary.
     574 mixed wall faces, zone 17, binary.
     574 mixed wall faces, zone 93, binary.
     574 mixed wall faces, zone 18, binary.
     572 mixed wall faces, zone 94, binary.
     572 mixed wall faces, zone 19, binary.
     574 mixed wall faces, zone 95, binary.
     574 mixed wall faces, zone 20, binary.
     574 mixed wall faces, zone 96, binary.
     574 mixed wall faces, zone 21, binary.
     574 mixed wall faces, zone 97, binary.
     574 mixed wall faces, zone 22, binary.
     574 mixed wall faces, zone 98, binary.
     574 mixed wall faces, zone 23, binary.
     574 mixed wall faces, zone 99, binary.
     574 mixed wall faces, zone 24, binary.
     574 mixed wall faces, zone 100, binary.
     574 mixed wall faces, zone 25, binary.
     574 mixed wall faces, zone 101, binary.
     574 mixed wall faces, zone 26, binary.
     574 mixed wall faces, zone 102, binary.
     574 mixed wall faces, zone 27, binary.
     574 mixed wall faces, zone 103, binary.
     574 mixed wall faces, zone 28, binary.
     572 mixed wall faces, zone 104, binary.
     572 mixed wall faces, zone 29, binary.
     574 mixed wall faces, zone 105, binary.
     574 mixed wall faces, zone 30, binary.
     572 mixed wall faces, zone 106, binary.
     572 mixed wall faces, zone 31, binary.
     574 mixed wall faces, zone 107, binary.
     574 mixed wall faces, zone 32, binary.
     572 mixed wall faces, zone 108, binary.
     572 mixed wall faces, zone 33, binary.
     574 mixed wall faces, zone 109, binary.
     574 mixed wall faces, zone 34, binary.
     574 mixed wall faces, zone 110, binary.
     574 mixed wall faces, zone 35, binary.
     574 mixed wall faces, zone 111, binary.
     574 mixed wall faces, zone 36, binary.
     572 mixed wall faces, zone 112, binary.
     572 mixed wall faces, zone 37, binary.
     574 mixed wall faces, zone 113, binary.
     574 mixed wall faces, zone 38, binary.
     572 mixed wall faces, zone 114, binary.
     572 mixed wall faces, zone 39, binary.
     574 mixed wall faces, zone 115, binary.
     574 mixed wall faces, zone 40, binary.
     574 mixed wall faces, zone 116, binary.
     574 mixed wall faces, zone 41, binary.
     574 mixed wall faces, zone 117, binary.
     574 mixed wall faces, zone 42, binary.
     572 mixed wall faces, zone 118, binary.
     572 mixed wall faces, zone 43, binary.
     574 mixed wall faces, zone 119, binary.
     574 mixed wall faces, zone 44, binary.
     574 mixed wall faces, zone 120, binary.
     574 mixed wall faces, zone 45, binary.
     574 mixed wall faces, zone 121, binary.
     574 mixed wall faces, zone 46, binary.
     574 mixed wall faces, zone 122, binary.
     574 mixed wall faces, zone 47, binary.
     574 mixed wall faces, zone 123, binary.
     574 mixed wall faces, zone 48, binary.
     572 mixed wall faces, zone 124, binary.
     572 mixed wall faces, zone 49, binary.
     976 mixed wall faces, zone 125, binary.
     976 mixed wall faces, zone 50, binary.
     574 mixed wall faces, zone 126, binary.
     574 mixed wall faces, zone 51, binary.
   42971 triangular velocity-inlet faces, zone 127, binary.
    3750 triangular pressure-outlet faces, zone 128, binary.
    1648 triangular velocity-inlet faces, zone 129, binary.
     562 triangular pressure-outlet faces, zone 130, binary.
  194098 triangular wall faces, zone 131, binary.
   98153 triangular wall faces, zone 132, binary.
    7947 triangular wall faces, zone 133, binary.
   37956 triangular wall faces, zone 134, binary.
    1826 triangular wall faces, zone 135, binary.
     916 triangular wall faces, zone 136, binary.
    6092 triangular wall faces, zone 137, binary.
     117 triangular wall faces, zone 138, binary.
     574 shadow face pairs, binary. 
     574 shadow face pairs, binary. 
     574 shadow face pairs, binary. 
     574 shadow face pairs, binary. 
     574 shadow face pairs, binary. 
     898 shadow face pairs, binary. 
     574 shadow face pairs, binary. 
     572 shadow face pairs, binary. 
     574 shadow face pairs, binary. 
     574 shadow face pairs, binary. 
     574 shadow face pairs, binary. 
     574 shadow face pairs, binary. 
     574 shadow face pairs, binary. 
     572 shadow face pairs, binary. 
     574 shadow face pairs, binary. 
     574 shadow face pairs, binary. 
     574 shadow face pairs, binary. 
     572 shadow face pairs, binary. 
     574 shadow face pairs, binary. 
     574 shadow face pairs, binary. 
     574 shadow face pairs, binary. 
     574 shadow face pairs, binary. 
     574 shadow face pairs, binary. 
     574 shadow face pairs, binary. 
     574 shadow face pairs, binary. 
     574 shadow face pairs, binary. 
     574 shadow face pairs, binary. 
     572 shadow face pairs, binary. 
     574 shadow face pairs, binary. 
     572 shadow face pairs, binary. 
     574 shadow face pairs, binary. 
     572 shadow face pairs, binary. 
     574 shadow face pairs, binary. 
     574 shadow face pairs, binary. 
     574 shadow face pairs, binary. 
     572 shadow face pairs, binary. 
     574 shadow face pairs, binary. 
     572 shadow face pairs, binary. 
     574 shadow face pairs, binary. 
     574 shadow face pairs, binary. 
     574 shadow face pairs, binary. 
     572 shadow face pairs, binary. 
     574 shadow face pairs, binary. 
     574 shadow face pairs, binary. 
     574 shadow face pairs, binary. 
     574 shadow face pairs, binary. 
     574 shadow face pairs, binary. 
     572 shadow face pairs, binary. 
     976 shadow face pairs, binary. 
     574 shadow face pairs, binary. 
 2650702 nodes, binary.
2650702 node flags, binary.
  348480 "or-inlet-profile" point-profile points, x, y, z, u, v, w.
   80802 "cor-inlet-profile" point-profile points, x, y, z, u, v, w.

Building...
     mesh
	auto partitioning mesh by Metis (fast),
	distributing mesh
		pairs..................................................,
		parts..................................................,
		faces..................................................,
		nodes..................................................,
		shadow nodes..................................................,
		cells..................................................,
        inter-node communication reduction using architecture-aware remapping: 62%
        bandwidth reduction using Reverse Cuthill-McKee: 160808/3270 = 49.1768
     materials,
     interface,
     domains,
	mixture
     zones,
	sampler
	or_equip
	or_lamp_heat
	or_lamp_wall
	or_persons
	or_table
	cor_wall
	or_wall
	cor_outlet
	cor_inlet
	or_inlet
	interior-cor
	interior-or
	or_outlet
	xdoor-d50
	xdoor-d50-shadow
	xdoor-d49
	xdoor-d49-shadow
	xdoor-d48
	xdoor-d48-shadow
	xdoor-d47
	xdoor-d47-shadow
	xdoor-d46
	xdoor-d46-shadow
	xdoor-d45
	xdoor-d45-shadow
	xdoor-d44
	xdoor-d44-shadow
	xdoor-d43
	xdoor-d43-shadow
	xdoor-d42
	xdoor-d42-shadow
	xdoor-d41
	xdoor-d41-shadow
	xdoor-d40
	xdoor-d40-shadow
	xdoor-d39
	xdoor-d39-shadow
	xdoor-d38
	xdoor-d38-shadow
	xdoor-d37
	xdoor-d37-shadow
	xdoor-d36
	xdoor-d36-shadow
	xdoor-d35
	xdoor-d35-shadow
	xdoor-d34
	xdoor-d34-shadow
	xdoor-d33
	xdoor-d33-shadow
	xdoor-d32
	xdoor-d32-shadow
	xdoor-d31
	xdoor-d31-shadow
	xdoor-d30
	xdoor-d30-shadow
	xdoor-d29
	xdoor-d29-shadow
	xdoor-d28
	xdoor-d28-shadow
	xdoor-d27
	xdoor-d27-shadow
	xdoor-d26
	xdoor-d26-shadow
	xdoor-d25
	xdoor-d25-shadow
	xdoor-d24
	xdoor-d24-shadow
	xdoor-d23
	xdoor-d23-shadow
	xdoor-d22
	xdoor-d22-shadow
	xdoor-d21
	xdoor-d21-shadow
	xdoor-d20
	xdoor-d20-shadow
	xdoor-d19
	xdoor-d19-shadow
	xdoor-d18
	xdoor-d18-shadow
	xdoor-d17
	xdoor-d17-shadow
	xdoor-d16
	xdoor-d16-shadow
	xdoor-d15
	xdoor-d15-shadow
	xdoor-d14
	xdoor-d14-shadow
	xdoor-d13
	xdoor-d13-shadow
	xdoor-d12
	xdoor-d12-shadow
	xdoor-d11
	xdoor-d11-shadow
	xdoor-d10
	xdoor-d10-shadow
	xdoor-d09
	xdoor-d09-shadow
	xdoor-d08
	xdoor-d08-shadow
	xdoor-d07
	xdoor-d07-shadow
	xdoor-d06
	xdoor-d06-shadow
	xdoor-d05
	xdoor-d05-shadow
	xdoor-d04
	xdoor-d04-shadow
	xdoor-d03
	xdoor-d03-shadow
	xdoor-d02
	xdoor-d02-shadow
	xdoor-d01
	xdoor-d01-shadow
	cor
	or
     parallel,
Done.

> ; file/read-data OR-COR-3-06000.dat.gz
;
;
; 
;
; solve/set/under-relaxation pressure 0.7 mom 0.3 temperature 1.0  k 0.8  epsilon 0.8
;
solve/monitors/residual/convergence-criteria 1e-5 , , , , , , , invalid command [,]
, , , , , ;

> ;
;
; define/boundary-conditions/outlet-vent , , , , , , , , , , , , , , ,   5.0
;
;
;
file/auto-save/case-frequency if-case-is-modified

> file/auto-save/data-frequency 1000

> file/auto-save/root-name OR-COR.gz

> ;
;
;
;
; solve/initialize/initialize-flow
solve/initialize/hyb-initialization

Initialize using the hybrid initialization method.

Checking case topology... 
-This case has both inlets & outlets 
-Pressure information is not available at the boundaries.
 Case will be initialized with constant pressure

	iter		scalar-0

	1		1.000000e+00
	2		1.913729e-04
	3		3.231042e-05
	4		1.258973e-05
	5		3.191509e-06
	6		1.057067e-06
	7		3.584498e-07
	8		1.339167e-07
	9		5.676746e-08
	10		3.337770e-08

Hybrid initialization is done.

> solve/initialize/fmg-initialization yes
Creating multigrid levels... 
 Grid Level  0: 11249544 cells, 23716602 faces, 2650702 nodes;  95 clusters
 Grid Level  1: 418592 cells, 7748098 faces, 2650702 nodes;  95 clusters
 Grid Level  1: 418592 cells, 2548635 faces,      0 nodes
 Grid Level  2:  81301 cells, 5479005 faces, 2650702 nodes;  95 clusters
 Grid Level  2:  81301 cells, 605903 faces,      0 nodes
 Grid Level  3:  19546 cells, 4168985 faces, 2650702 nodes;  95 clusters
 Grid Level  3:  19546 cells, 163274 faces,      0 nodes
 Grid Level  4:   5116 cells, 3214241 faces, 2650701 nodes;  95 clusters
 Grid Level  4:   5116 cells,  47218 faces,      0 nodes
 Grid Level  5:   1413 cells, 2455750 faces, 2650701 nodes;  95 clusters
 Grid Level  5:   1413 cells,  14368 faces,      0 nodes
Done.


FMG: Converge FAS on level 5


FMG: Converge FAS on level 4


FMG: Converge FAS on level 3


FMG: Converge FAS on level 2


FMG: Converge FAS on level 1
0.
 reversed flow in 562 faces on pressure-outlet 130.
->1.->2.->3.->4.->5.<<<<<

FMG: Initialize flow for Segregated solution.. . end 


> ;
;
;
;
solve/iterate 6000
  iter  continuity  x-velocity  y-velocity  z-velocity      energy           k     epsilon  mass_balan  heat_balan  pressure_o  pressure_c  volflow_or  volflow_co      dpm_or     dpm_cor     temp_p1    temp_max      dpm_p2  volflow_in  pressure_d     time/iter

 reversed flow in 562 faces on pressure-outlet 130. 
     1  1.0000e+00  4.0197e-03  5.8174e-03  8.0682e-03  2.4055e-06  7.1409e-03  3.5960e-02  3.1774e+00 -4.8969e+03 -1.2369e+01  1.6441e+02 -1.3206e+00  1.7747e+00  0.0000e+00  0.0000e+00  2.9603e+02  3.2190e+02  0.0000e+00  2.1019e+00 -1.7678e+02  6:03:11 5999

 reversed flow in 536 faces on pressure-outlet 130. 
     2  1.0000e+00  1.3310e-02  2.2189e-02  1.9956e-02  4.4378e-06  6.3325e-03  2.5217e-02  1.0042e+00  1.1794e+03  1.2488e+02  2.9973e+02 -2.4338e+00  1.0695e+00  0.0000e+00  0.0000e+00  2.9635e+02  3.2641e+02  0.0000e+00  2.1019e+00 -1.7485e+02  5:36:04 5998

 reversed flow in 477 faces on pressure-outlet 130. 
     3  5.0172e-01  1.1254e-02  2.3992e-02  1.8970e-02  8.2354e-07  6.1423e-03  2.1365e-02  3.9221e-01 -2.0851e+02 -1.9687e+01  4.6860e+02 -2.0159e+00  1.3090e-01  0.0000e+00  0.0000e+00  2.9704e+02  3.3677e+02  0.0000e+00  2.1019e+00 -4.8828e+02  5:19:12 5997

 reversed flow in 379 faces on pressure-outlet 130. 
     4  4.8030e-01  1.1841e-02  2.3741e-02  2.1968e-02  1.2121e-06  5.9020e-03  2.0379e-02 -4.3013e-01  8.3163e+02  2.8871e+01  3.6836e+02 -2.1786e+00 -3.9804e-01  0.0000e+00  0.0000e+00  2.9723e+02  3.4510e+02  0.0000e+00  2.1019e+00 -3.3949e+02  4:55:55 5996

 reversed flow in 308 faces on pressure-outlet 130. 
     5  3.1307e-01  9.5829e-03  2.0773e-02  1.9396e-02  4.7934e-07  5.6803e-03  1.9462e-02 -4.6033e-01  6.8891e+02  2.0876e+01  1.4001e+02 -2.1897e+00 -4.1282e-01  0.0000e+00  0.0000e+00  2.9750e+02  3.5253e+02  0.0000e+00  2.1019e+00 -1.1913e+02  4:41:08 5995

 reversed flow in 277 faces on pressure-outlet 130. 
     6  2.9730e-01  5.5746e-03  1.4725e-02  1.2612e-02  6.0599e-07  5.5645e-03  1.8355e-02 -2.3035e-01  1.5031e+02  8.1563e+00  8.4984e+00 -2.1536e+00 -2.5621e-01  0.0000e+00  0.0000e+00  2.9747e+02  3.5869e+02  0.0000e+00  2.1019e+00 -3.4212e-01  4:28:00 5994

 reversed flow in 278 faces on pressure-outlet 130. 
     7  3.8195e-01  3.6228e-03  6.9405e-03  6.4569e-03  2.4145e-07  5.4861e-03  1.7239e-02 -1.8906e-01  1.2622e+02  7.0633e+00  1.7685e+00 -2.1418e+00 -2.3319e-01  0.0000e+00  0.0000e+00  2.9746e+02  3.6611e+02  0.0000e+00  2.1019e+00  5.2949e+00  4:16:24 5993

 reversed flow in 261 faces on pressure-outlet 130. 
     8  2.5634e-01  2.6695e-03  4.2695e-03  4.2611e-03  3.2050e-07  5.4234e-03  1.6444e-02 -5.0364e-02 -2.4873e+02 -6.4107e+00 -8.0947e+00 -2.0703e+00 -1.8861e-01  0.0000e+00  0.0000e+00  2.9741e+02  3.6916e+02  0.0000e+00  2.1019e+00  1.6840e+00  4:05:27 5992

 reversed flow in 250 faces on pressure-outlet 130. 
     9  1.6607e-01  2.1367e-03  3.4181e-03  3.2915e-03  2.0206e-07  5.3727e-03  1.5693e-02 -6.2944e-02  4.3323e+01  1.0197e+01 -1.9527e+01 -2.1275e+00 -1.4118e-01  0.0000e+00  0.0000e+00  2.9733e+02  3.7277e+02  0.0000e+00  2.1019e+00  2.9725e+01  4:00:03 5991

 reversed flow in 246 faces on pressure-outlet 130. 
/file/read-macros controlruntime.scm

    10  1.3671e-01  1.9017e-03  3.0000e-03  3.3110e-03  2.3741e-07  5.3354e-03  1.5169e-02 -1.0635e-03 -5.6086e+01  3.8080e+00 -1.9160e+01 -2.1025e+00 -1.1426e-01  0.0000e+00  0.0000e+00  2.9731e+02  3.7576e+02  0.0000e+00  2.1019e+00  2.2968e+01  3:53:09 5990

 reversed flow in 241 faces on pressure-outlet 130. 
    11  1.0552e-01  1.7894e-03  3.4071e-03  3.7835e-03  1.3489e-07  5.3004e-03  1.4897e-02  2.2250e-02 -5.8015e+01  4.5422e+00 -1.7410e+01 -2.1010e+00 -9.6057e-02  0.0000e+00  0.0000e+00  2.9728e+02  3.8026e+02  0.0000e+00  2.1019e+00  2.1953e+01  3:51:25 5989

 reversed flow in 233 faces on pressure-outlet 130. 

  iter  continuity  x-velocity  y-velocity  z-velocity      energy           k     epsilon  mass_balan  heat_balan  pressure_o  pressure_c  volflow_or  volflow_co      dpm_or     dpm_cor     temp_p1    temp_max      dpm_p2  volflow_in  pressure_d     time/iter
    12  6.7407e-02  1.6621e-03  3.2702e-03  3.6655e-03  1.6091e-07  5.2672e-03  1.4862e-02  6.9392e-03  3.5010e+01  8.2816e+00 -1.2459e+01 -2.1168e+00 -9.2931e-02  0.0000e+00  0.0000e+00  2.9727e+02  3.8195e+02  0.0000e+00  2.1019e+00  2.0741e+01  3:46:21 5988

 reversed flow in 219 faces on pressure-outlet 130. 
    13  4.7016e-02  1.4790e-03  2.8671e-03  3.1925e-03  7.8221e-08  5.2369e-03  1.4991e-02 -3.3949e-03  3.4617e+01  6.6172e+00 -3.8924e+00 -2.1121e+00 -1.0637e-01  0.0000e+00  0.0000e+00  2.9725e+02  3.8385e+02  0.0000e+00  2.1019e+00  1.0510e+01  3:48:16 5987

 reversed flow in 213 faces on pressure-outlet 130. 
    14  5.7499e-02  1.3359e-03  1.8246e-03  2.2433e-03  1.1270e-07  5.2086e-03  1.5034e-02 -1.1424e-02  3.3791e+01  6.5106e+00 -3.6484e+00 -2.1113e+00 -1.1394e-01  0.0000e+00  0.0000e+00  2.9723e+02  3.8631e+02  0.0000e+00  2.1019e+00  1.0159e+01  3:42:29 5986

 reversed flow in 197 faces on pressure-outlet 130. 
    15  3.7727e-02  1.1917e-03  1.5625e-03  2.0342e-03  7.5500e-08  5.1766e-03  1.4986e-02 -8.2936e-03  2.0889e+01  6.2908e+00 -5.4988e+00 -2.1101e+00 -1.1253e-01  0.0000e+00  0.0000e+00  2.9722e+02  3.8747e+02  0.0000e+00  2.1019e+00  1.1790e+01  3:39:40 5985

 reversed flow in 187 faces on pressure-outlet 130. 
    16  3.3006e-02  1.0816e-03  1.2708e-03  1.8168e-03  7.6156e-08  5.1443e-03  1.4912e-02 -3.4782e-04 -1.2805e+01  5.4644e+00 -5.9730e+00 -2.1054e+00 -1.1055e-01  0.0000e+00  0.0000e+00  2.9721e+02  3.8888e+02  0.0000e+00  2.1019e+00  1.1437e+01  3:36:01 5984

 reversed flow in 182 faces on pressure-outlet 130. 
    17  2.4879e-02  1.0044e-03  1.2251e-03  1.7468e-03  6.2346e-08  5.1106e-03  1.4801e-02 -1.1119e-03 -4.4695e+00  6.3770e+00 -6.2180e+00 -2.1087e+00 -1.0791e-01  0.0000e+00  0.0000e+00  2.9720e+02  3.9011e+02  0.0000e+00  2.1019e+00  1.2595e+01  3:34:46 5983

 reversed flow in 174 faces on pressure-outlet 130. 
    18  2.0673e-02  9.4999e-04  1.1776e-03  1.7154e-03  7.0616e-08  5.0785e-03  1.4696e-02  1.5886e-03 -1.7645e+01  5.8638e+00 -6.0262e+00 -2.1069e+00 -1.0747e-01  0.0000e+00  0.0000e+00  2.9719e+02  3.9130e+02  0.0000e+00  2.1019e+00  1.1890e+01  3:33:45 5982

 reversed flow in 170 faces on pressure-outlet 130. 
    19  1.7572e-02  9.2189e-04  1.1245e-03  1.6851e-03  6.4436e-08  5.0464e-03  1.4600e-02  4.4289e-04 -1.2573e+01  6.0871e+00 -5.9874e+00 -2.1074e+00 -1.0789e-01  0.0000e+00  0.0000e+00  2.9717e+02  3.9268e+02  0.0000e+00  2.1019e+00  1.2075e+01  3:32:31 5981

 reversed flow in 164 faces on pressure-outlet 130. 
/file/read-macros controlruntime.scm

    20  1.2876e-02  8.8729e-04  1.0412e-03  1.6332e-03  6.4233e-08  5.0137e-03  1.4510e-02  8.2670e-04 -1.1940e+01  6.0231e+00 -6.1969e+00 -2.1070e+00 -1.0803e-01  0.0000e+00  0.0000e+00  2.9716e+02  3.9399e+02  0.0000e+00  2.1019e+00  1.2220e+01  3:35:06 5980

 reversed flow in 156 faces on pressure-outlet 130. 
    21  1.2350e-02  8.5855e-04  9.5884e-04  1.5810e-03  6.1667e-08  4.9804e-03  1.4379e-02  7.0422e-04 -8.1838e+00  6.1409e+00 -6.1548e+00 -2.1073e+00 -1.0780e-01  0.0000e+00  0.0000e+00  2.9715e+02  3.9548e+02  0.0000e+00  2.1019e+00  1.2296e+01  3:33:16 5979

 reversed flow in 157 faces on pressure-outlet 130. 
    22  1.0553e-02  8.4153e-04  9.4259e-04  1.5610e-03  6.0220e-08  4.9467e-03  1.4221e-02  1.4893e-03 -6.8614e+00  6.1718e+00 -6.0927e+00 -2.1074e+00 -1.0700e-01  0.0000e+00  0.0000e+00  2.9713e+02  3.9728e+02  0.0000e+00  2.1019e+00  1.2265e+01  3:31:29 5978

 reversed flow in 159 faces on pressure-outlet 130. 

  iter  continuity  x-velocity  y-velocity  z-velocity      energy           k     epsilon  mass_balan  heat_balan  pressure_o  pressure_c  volflow_or  volflow_co      dpm_or     dpm_cor     temp_p1    temp_max      dpm_p2  volflow_in  pressure_d     time/iter
    23  9.4015e-03  8.2817e-04  9.3031e-04  1.5459e-03  5.8675e-08  4.9137e-03  1.4066e-02  1.4091e-03 -4.6908e+00  6.2523e+00 -6.0519e+00 -2.1078e+00 -1.0663e-01  0.0000e+00  0.0000e+00  2.9712e+02  3.9887e+02  0.0000e+00  2.1019e+00  1.2304e+01  3:31:03 5977

 reversed flow in 149 faces on pressure-outlet 130. 
    24  8.5921e-03  8.1647e-04  9.2297e-04  1.5312e-03  5.6069e-08  4.8839e-03  1.3992e-02  2.5716e-03 -7.9653e+00  6.1303e+00 -5.9212e+00 -2.1073e+00 -1.0614e-01  0.0000e+00  0.0000e+00  2.9711e+02  4.0022e+02  0.0000e+00  2.1019e+00  1.2051e+01  3:30:25 5976

 reversed flow in 165 faces on pressure-outlet 130. 
    25  8.0679e-03  8.0694e-04  9.1271e-04  1.5189e-03  5.4603e-08  4.8534e-03  1.3936e-02  2.0791e-03 -2.6561e+00  6.4263e+00 -5.7164e+00 -2.1087e+00 -1.0518e-01  0.0000e+00  0.0000e+00  2.9710e+02  4.0143e+02  0.0000e+00  2.1019e+00  1.2143e+01  3:29:06 5975

 reversed flow in 178 faces on pressure-outlet 130. 
    26  7.7239e-03  7.9784e-04  9.1363e-04  1.5075e-03  5.4318e-08  4.8239e-03  1.3853e-02  4.5993e-03 -1.1414e+01  6.0297e+00 -5.4576e+00 -2.1071e+00 -1.0468e-01  0.0000e+00  0.0000e+00  2.9708e+02  4.0251e+02  0.0000e+00  2.1019e+00  1.1487e+01  3:35:40 5974

 reversed flow in 185 faces on pressure-outlet 130. 
    27  7.5043e-03  7.9014e-04  9.0100e-04  1.4965e-03  5.2444e-08  4.7952e-03  1.3801e-02  3.4127e-03 -6.7978e+00  6.2760e+00 -5.2366e+00 -2.1080e+00 -1.0474e-01  0.0000e+00  0.0000e+00  2.9707e+02  4.0350e+02  0.0000e+00  2.1019e+00  1.1513e+01  3:33:11 5973

 reversed flow in 191 faces on pressure-outlet 130. 
    28  7.2122e-03  7.8163e-04  8.8923e-04  1.4852e-03  5.1383e-08  4.7691e-03  1.3785e-02  3.8571e-03 -1.0137e+01  6.1144e+00 -5.0207e+00 -2.1074e+00 -1.0504e-01  0.0000e+00  0.0000e+00  2.9706e+02  4.0440e+02  0.0000e+00  2.1019e+00  1.1135e+01  3:34:36 5972

 reversed flow in 199 faces on pressure-outlet 130. 
    29  7.0091e-03  7.7501e-04  8.7779e-04  1.4752e-03  4.9942e-08  4.7456e-03  1.3809e-02  3.0241e-03 -7.4804e+00  6.2721e+00 -4.8076e+00 -2.1080e+00 -1.0508e-01  0.0000e+00  0.0000e+00  2.9705e+02  4.0525e+02  0.0000e+00  2.1019e+00  1.1080e+01  3:32:35 5971

 reversed flow in 208 faces on pressure-outlet 130. 
/file/read-macros controlruntime.scm

    30  6.8653e-03  7.6862e-04  8.7019e-04  1.4660e-03  4.9808e-08  4.7202e-03  1.3836e-02  3.4325e-03 -1.1172e+01  6.1104e+00 -4.6873e+00 -2.1074e+00 -1.0540e-01  0.0000e+00  0.0000e+00  2.9704e+02  4.0602e+02  0.0000e+00  2.1019e+00  1.0798e+01  3:30:55 5970

 reversed flow in 211 faces on pressure-outlet 130. 
    31  6.5734e-03  7.6243e-04  8.6203e-04  1.4560e-03  5.0060e-08  4.6982e-03  1.3882e-02  3.0741e-03 -1.1206e+01  6.1152e+00 -4.4344e+00 -2.1073e+00 -1.0575e-01  0.0000e+00  0.0000e+00  2.9703e+02  4.0662e+02  0.0000e+00  2.1019e+00  1.0550e+01  3:29:20 5969

 reversed flow in 218 faces on pressure-outlet 130. 
    32  6.3602e-03  7.5707e-04  8.5483e-04  1.4476e-03  4.9024e-08  4.6751e-03  1.3898e-02  2.0417e-03 -7.6686e+00  6.2565e+00 -4.1770e+00 -2.1079e+00 -1.0600e-01  0.0000e+00  0.0000e+00  2.9702e+02  4.0712e+02  0.0000e+00  2.1019e+00  1.0433e+01  3:28:12 5968

 reversed flow in 218 faces on pressure-outlet 130. 
    33  6.1714e-03  7.5215e-04  8.5230e-04  1.4394e-03  4.7708e-08  4.6531e-03  1.3930e-02  2.5654e-03 -1.1503e+01  6.0917e+00 -3.9128e+00 -2.1073e+00 -1.0624e-01  0.0000e+00  0.0000e+00  2.9701e+02  4.0751e+02  0.0000e+00  2.1019e+00  1.0004e+01  3:27:37 5967

 reversed flow in 220 faces on pressure-outlet 130. 

  iter  continuity  x-velocity  y-velocity  z-velocity      energy           k     epsilon  mass_balan  heat_balan  pressure_o  pressure_c  volflow_or  volflow_co      dpm_or     dpm_cor     temp_p1    temp_max      dpm_p2  volflow_in  pressure_d     time/iter
    34  5.9602e-03  7.4805e-04  8.4501e-04  1.4325e-03  4.7882e-08  4.6309e-03  1.3888e-02  1.4207e-03 -7.1491e+00  6.2663e+00 -3.7349e+00 -2.1080e+00 -1.0644e-01  0.0000e+00  0.0000e+00  2.9699e+02  4.0785e+02  0.0000e+00  2.1019e+00  1.0001e+01  3:26:37 5966

 reversed flow in 219 faces on pressure-outlet 130. 
    35  5.8320e-03  7.4392e-04  8.4148e-04  1.4259e-03  4.7797e-08  4.6081e-03  1.3789e-02  1.9704e-03 -9.5183e+00  6.1262e+00 -3.4565e+00 -2.1075e+00 -1.0651e-01  0.0000e+00  0.0000e+00  2.9698e+02  4.0803e+02  0.0000e+00  2.1019e+00  9.5827e+00  3:25:49 5965

 reversed flow in 224 faces on pressure-outlet 130. 
    36  5.6627e-03  7.4047e-04  8.3623e-04  1.4192e-03  4.7984e-08  4.5844e-03  1.3646e-02  2.1212e-03 -9.9394e+00  6.0966e+00 -3.2994e+00 -2.1073e+00 -1.0659e-01  0.0000e+00  0.0000e+00  2.9697e+02  4.0816e+02  0.0000e+00  2.1019e+00  9.3960e+00  3:28:27 5964

 reversed flow in 226 faces on pressure-outlet 130. 
    37  5.5623e-03  7.3703e-04  8.3381e-04  1.4126e-03  4.6380e-08  4.5618e-03  1.3516e-02  1.1893e-03 -6.5268e+00  6.2380e+00 -3.1520e+00 -2.1079e+00 -1.0674e-01  0.0000e+00  0.0000e+00  2.9696e+02  4.0838e+02  0.0000e+00  2.1019e+00  9.3900e+00  3:28:01 5963

 reversed flow in 227 faces on pressure-outlet 130. 
    38  5.4733e-03  7.3381e-04  8.3083e-04  1.4061e-03  4.6424e-08  4.5398e-03  1.3375e-02  1.6532e-03 -9.0909e+00  6.1184e+00 -2.9838e+00 -2.1075e+00 -1.0679e-01  0.0000e+00  0.0000e+00  2.9695e+02  4.0885e+02  0.0000e+00  2.1019e+00  9.1021e+00  3:27:15 5962

 reversed flow in 229 faces on pressure-outlet 130. 
    39  5.3697e-03  7.3045e-04  8.2652e-04  1.4003e-03  4.6404e-08  4.5161e-03  1.3186e-02  1.3135e-03 -7.1806e+00  6.1854e+00 -2.8272e+00 -2.1077e+00 -1.0681e-01  0.0000e+00  0.0000e+00  2.9693e+02  4.0922e+02  0.0000e+00  2.1019e+00  9.0126e+00  3:26:46 5961

 reversed flow in 235 faces on pressure-outlet 130. 
/file/read-macros controlruntime.scm

    40  5.2705e-03  7.2736e-04  8.2202e-04  1.3943e-03  4.6699e-08  4.4924e-03  1.2999e-02  1.4490e-03 -7.2829e+00  6.1408e+00 -2.6787e+00 -2.1076e+00 -1.0686e-01  0.0000e+00  0.0000e+00  2.9692e+02  4.0969e+02  0.0000e+00  2.1019e+00  8.8196e+00  3:25:57 5960

 reversed flow in 239 faces on pressure-outlet 130. 
    41  5.2061e-03  7.2453e-04  8.1820e-04  1.3888e-03  4.5814e-08  4.4674e-03  1.2736e-02  1.2705e-03 -6.2522e+00  6.1700e+00 -2.5277e+00 -2.1077e+00 -1.0688e-01  0.0000e+00  0.0000e+00  2.9691e+02  4.1051e+02  0.0000e+00  2.1019e+00  8.6977e+00  3:25:36 5959

 reversed flow in 243 faces on pressure-outlet 130. 
    42  5.1381e-03  7.2181e-04  8.1457e-04  1.3825e-03  4.5383e-08  4.4420e-03  1.2502e-02  1.2549e-03 -6.2127e+00  6.1521e+00 -2.3957e+00 -2.1076e+00 -1.0694e-01  0.0000e+00  0.0000e+00  2.9690e+02  4.1120e+02  0.0000e+00  2.1019e+00  8.5479e+00  3:25:02 5958

 reversed flow in 246 faces on pressure-outlet 130. 
    43  5.0665e-03  7.1883e-04  8.1157e-04  1.3771e-03  4.4494e-08  4.4159e-03  1.2243e-02  1.2848e-03 -6.5150e+00  6.1494e+00 -2.2749e+00 -2.1076e+00 -1.0693e-01  0.0000e+00  0.0000e+00  2.9689e+02  4.1173e+02  0.0000e+00  2.1019e+00  8.4243e+00  3:24:29 5957

 reversed flow in 251 faces on pressure-outlet 130. 
    44  5.0007e-03  7.1605e-04  8.0847e-04  1.3714e-03  4.5302e-08  4.3899e-03  1.1965e-02  1.2933e-03 -6.2470e+00  6.1495e+00 -2.1598e+00 -2.1076e+00 -1.0691e-01  0.0000e+00  0.0000e+00  2.9687e+02  4.1212e+02  0.0000e+00  2.1019e+00  8.3093e+00  3:27:18 5956

 reversed flow in 253 faces on pressure-outlet 130. 

  iter  continuity  x-velocity  y-velocity  z-velocity      energy           k     epsilon  mass_balan  heat_balan  pressure_o  pressure_c  volflow_or  volflow_co      dpm_or     dpm_cor     temp_p1    temp_max      dpm_p2  volflow_in  pressure_d     time/iter
    45  4.9569e-03  7.1296e-04  8.0416e-04  1.3658e-03  4.4650e-08  4.3663e-03  1.1777e-02  1.2230e-03 -6.0698e+00  6.1485e+00 -2.0420e+00 -2.1076e+00 -1.0697e-01  0.0000e+00  0.0000e+00  2.9686e+02  4.1234e+02  0.0000e+00  2.1019e+00  8.1905e+00  3:26:18 5955

 reversed flow in 260 faces on pressure-outlet 130. 
    46  4.9015e-03  7.0997e-04  8.0065e-04  1.3602e-03  4.4067e-08  4.3409e-03  1.1552e-02  1.1568e-03 -5.9520e+00  6.1464e+00 -1.9172e+00 -2.1076e+00 -1.0703e-01  0.0000e+00  0.0000e+00  2.9685e+02  4.1243e+02  0.0000e+00  2.1019e+00  8.0636e+00  3:25:37 5954

 reversed flow in 264 faces on pressure-outlet 130. 
    47  4.8585e-03  7.0703e-04  7.9749e-04  1.3540e-03  4.3369e-08  4.3164e-03  1.1343e-02  1.1447e-03 -6.3209e+00  6.1450e+00 -1.8270e+00 -2.1076e+00 -1.0703e-01  0.0000e+00  0.0000e+00  2.9684e+02  4.1239e+02  0.0000e+00  2.1019e+00  7.9720e+00  3:24:59 5953

 reversed flow in 265 faces on pressure-outlet 130. 
    48  4.8162e-03  7.0420e-04  7.9462e-04  1.3483e-03  4.3574e-08  4.2928e-03  1.1181e-02  1.2167e-03 -6.5848e+00  6.1431e+00 -1.7583e+00 -2.1076e+00 -1.0698e-01  0.0000e+00  0.0000e+00  2.9683e+02  4.1222e+02  0.0000e+00  2.1019e+00  7.9013e+00  3:24:26 5952

 reversed flow in 269 faces on pressure-outlet 130. 
    49  4.7709e-03  7.0159e-04  7.9164e-04  1.3434e-03  4.4031e-08  4.2682e-03  1.1016e-02  1.2329e-03 -6.2636e+00  6.1414e+00 -1.6625e+00 -2.1076e+00 -1.0696e-01  0.0000e+00  0.0000e+00  2.9681e+02  4.1196e+02  0.0000e+00  2.1019e+00  7.8039e+00  3:24:26 5951

 reversed flow in 272 faces on pressure-outlet 130. 
/file/read-macros controlruntime.scm

    50  4.7153e-03  6.9889e-04  7.8837e-04  1.3379e-03  4.3051e-08  4.2431e-03  1.0859e-02  1.2379e-03 -6.0099e+00  6.1402e+00 -1.5936e+00 -2.1076e+00 -1.0695e-01  0.0000e+00  0.0000e+00  2.9680e+02  4.1161e+02  0.0000e+00  2.1019e+00  7.7338e+00  3:25:18 5950

 reversed flow in 274 faces on pressure-outlet 130. 
    51  4.6557e-03  6.9678e-04  7.8554e-04  1.3326e-03  4.2539e-08  4.2189e-03  1.0723e-02  1.2303e-03 -5.8885e+00  6.1391e+00 -1.5184e+00 -2.1076e+00 -1.0696e-01  0.0000e+00  0.0000e+00  2.9679e+02  4.1140e+02  0.0000e+00  2.1019e+00  7.6575e+00  3:24:38 5949

 reversed flow in 277 faces on pressure-outlet 130. 
    52  4.6311e-03  6.9406e-04  7.8186e-04  1.3278e-03  4.2112e-08  4.1938e-03  1.0577e-02  1.1364e-03 -5.7659e+00  6.1368e+00 -1.4439e+00 -2.1076e+00 -1.0704e-01  0.0000e+00  0.0000e+00  2.9678e+02  4.1126e+02  0.0000e+00  2.1019e+00  7.5807e+00  3:24:27 5948

 reversed flow in 279 faces on pressure-outlet 130. 
    53  4.5746e-03  6.9133e-04  7.7861e-04  1.3226e-03  4.1300e-08  4.1695e-03  1.0448e-02  1.2105e-03 -6.1007e+00  6.1352e+00 -1.4141e+00 -2.1076e+00 -1.0698e-01  0.0000e+00  0.0000e+00  2.9677e+02  4.1106e+02  0.0000e+00  2.1019e+00  7.5493e+00  3:27:27 5947

 reversed flow in 279 faces on pressure-outlet 130. 
    54  4.5247e-03  6.8887e-04  7.7546e-04  1.3172e-03  4.1917e-08  4.1459e-03  1.0327e-02  1.2368e-03 -6.0081e+00  6.1340e+00 -1.3487e+00 -2.1076e+00 -1.0696e-01  0.0000e+00  0.0000e+00  2.9676e+02  4.1086e+02  0.0000e+00  2.1019e+00  7.4826e+00  3:26:37 5946

 reversed flow in 281 faces on pressure-outlet 130. 
    55  4.5099e-03  6.8627e-04  7.7254e-04  1.3124e-03  4.1139e-08  4.1214e-03  1.0193e-02  1.1359e-03 -5.7043e+00  6.1323e+00 -1.2793e+00 -2.1076e+00 -1.0704e-01  0.0000e+00  0.0000e+00  2.9674e+02  4.1136e+02  0.0000e+00  2.1019e+00  7.4117e+00  3:25:43 5945

 reversed flow in 280 faces on pressure-outlet 130. 

  iter  continuity  x-velocity  y-velocity  z-velocity      energy           k     epsilon  mass_balan  heat_balan  pressure_o  pressure_c  volflow_or  volflow_co      dpm_or     dpm_cor     temp_p1    temp_max      dpm_p2  volflow_in  pressure_d     time/iter
    56  4.4641e-03  6.8341e-04  7.6900e-04  1.3072e-03  4.0632e-08  4.0980e-03  1.0075e-02  1.0367e-03 -5.4956e+00  6.1308e+00 -1.2414e+00 -2.1076e+00 -1.0713e-01  0.0000e+00  0.0000e+00  2.9673e+02  4.1175e+02  0.0000e+00  2.1019e+00  7.3722e+00  3:25:12 5944

 reversed flow in 282 faces on pressure-outlet 130. 
    57  4.4057e-03  6.8103e-04  7.6626e-04  1.3020e-03  3.9823e-08  4.0746e-03  9.9596e-03  1.0075e-03 -5.7187e+00  6.1299e+00 -1.2032e+00 -2.1076e+00 -1.0715e-01  0.0000e+00  0.0000e+00  2.9672e+02  4.1203e+02  0.0000e+00  2.1019e+00  7.3331e+00  3:24:59 5943

 reversed flow in 280 faces on pressure-outlet 130. 
    58  4.3736e-03  6.7877e-04  7.6360e-04  1.2969e-03  3.9679e-08  4.0511e-03  9.8477e-03  1.0237e-03 -5.9778e+00  6.1286e+00 -1.1665e+00 -2.1076e+00 -1.0714e-01  0.0000e+00  0.0000e+00  2.9671e+02  4.1218e+02  0.0000e+00  2.1019e+00  7.2951e+00  3:24:26 5942

 reversed flow in 277 faces on pressure-outlet 130. 
    59  4.3427e-03  6.7661e-04  7.6100e-04  1.2918e-03  4.0023e-08  4.0285e-03  9.7382e-03  1.0576e-03 -5.8346e+00  6.1274e+00 -1.1294e+00 -2.1076e+00 -1.0711e-01  0.0000e+00  0.0000e+00  2.9670e+02  4.1222e+02  0.0000e+00  2.1019e+00  7.2568e+00  3:24:13 5941

 reversed flow in 279 faces on pressure-outlet 130. 
/file/read-macros controlruntime.scm

    60  4.3083e-03  6.7428e-04  7.5833e-04  1.2868e-03  3.8819e-08  4.0060e-03  9.6283e-03  1.0050e-03 -5.7568e+00  6.1257e+00 -1.0798e+00 -2.1076e+00 -1.0716e-01  0.0000e+00  0.0000e+00  2.9669e+02  4.1215e+02  0.0000e+00  2.1019e+00  7.2054e+00  3:24:05 5940

 reversed flow in 277 faces on pressure-outlet 130. 
    61  4.2821e-03  6.7192e-04  7.5527e-04  1.2814e-03  3.9211e-08  3.9833e-03  9.5133e-03  9.6326e-04 -5.4427e+00  6.1245e+00 -1.0511e+00 -2.1076e+00 -1.0719e-01  0.0000e+00  0.0000e+00  2.9668e+02  4.1200e+02  0.0000e+00  2.1019e+00  7.1756e+00  3:26:54 5939

 reversed flow in 265 faces on pressure-outlet 130. 
    62  4.2332e-03  6.6960e-04  7.5213e-04  1.2760e-03  3.8127e-08  3.9613e-03  9.4133e-03  9.7371e-04 -5.5630e+00  6.1233e+00 -1.0243e+00 -2.1076e+00 -1.0718e-01  0.0000e+00  0.0000e+00  2.9667e+02  4.1179e+02  0.0000e+00  2.1019e+00  7.1476e+00  3:26:04 5938

 reversed flow in 258 faces on pressure-outlet 130. 
    63  4.2021e-03  6.6726e-04  7.4927e-04  1.2703e-03  3.8358e-08  3.9400e-03  9.3187e-03  1.0202e-03 -5.3360e+00  6.1221e+00 -9.9561e-01 -2.1076e+00 -1.0714e-01  0.0000e+00  0.0000e+00  2.9666e+02  4.1202e+02  0.0000e+00  2.1019e+00  7.1177e+00  3:25:17 5937

 reversed flow in 251 faces on pressure-outlet 130. 
    64  4.1720e-03  6.6486e-04  7.4632e-04  1.2645e-03  3.7479e-08  3.9193e-03  9.2288e-03  1.0310e-03 -5.5597e+00  6.1207e+00 -9.6267e-01 -2.1076e+00 -1.0713e-01  0.0000e+00  0.0000e+00  2.9665e+02  4.1260e+02  0.0000e+00  2.1019e+00  7.0834e+00  3:24:35 5936

 reversed flow in 244 faces on pressure-outlet 130. 
    65  4.1483e-03  6.6255e-04  7.4391e-04  1.2592e-03  3.7333e-08  3.8987e-03  9.1359e-03  9.9157e-04 -5.5871e+00  6.1194e+00 -9.2619e-01 -2.1076e+00 -1.0717e-01  0.0000e+00  0.0000e+00  2.9663e+02  4.1301e+02  0.0000e+00  2.1019e+00  7.0456e+00  3:24:10 5935

 reversed flow in 231 faces on pressure-outlet 130. 
    66  4.1332e-03  6.5990e-04  7.4131e-04  1.2536e-03  3.7584e-08  3.8783e-03  9.0475e-03  9.2678e-04 -5.1097e+00  6.1181e+00 -8.9906e-01 -2.1076e+00 -1.0722e-01  0.0000e+00  0.0000e+00  2.9662e+02  4.1329e+02  0.0000e+00  2.1019e+00  7.0171e+00  3:23:47 5934

 reversed flow in 225 faces on pressure-outlet 130. 

  iter  continuity  x-velocity  y-velocity  z-velocity      energy           k     epsilon  mass_balan  heat_balan  pressure_o  pressure_c  volflow_or  volflow_co      dpm_or     dpm_cor     temp_p1    temp_max      dpm_p2  volflow_in  pressure_d     time/iter
    67  4.1021e-03  6.5752e-04  7.3878e-04  1.2480e-03  3.6466e-08  3.8581e-03  8.9672e-03  8.7193e-04 -5.1629e+00  6.1171e+00 -8.7597e-01 -2.1076e+00 -1.0727e-01  0.0000e+00  0.0000e+00  2.9661e+02  4.1345e+02  0.0000e+00  2.1019e+00  6.9930e+00  3:23:34 5933

 reversed flow in 218 faces on pressure-outlet 130. 
    68  4.0821e-03  6.5544e-04  7.3627e-04  1.2423e-03  3.6887e-08  3.8376e-03  8.8893e-03  8.5990e-04 -4.9079e+00  6.1153e+00 -8.6158e-01 -2.1076e+00 -1.0728e-01  0.0000e+00  0.0000e+00  2.9660e+02  4.1351e+02  0.0000e+00  2.1019e+00  6.9769e+00  3:23:26 5932

 reversed flow in 212 faces on pressure-outlet 130. 
    69  4.0591e-03  6.5367e-04  7.3415e-04  1.2367e-03  3.5920e-08  3.8175e-03  8.8161e-03  8.8759e-04 -5.1548e+00  6.1146e+00 -8.4149e-01 -2.1076e+00 -1.0725e-01  0.0000e+00  0.0000e+00  2.9659e+02  4.1351e+02  0.0000e+00  2.1019e+00  6.9560e+00  3:27:05 5931

 reversed flow in 206 faces on pressure-outlet 130. 
/file/read-macros controlruntime.scm

    70  4.0487e-03  6.5188e-04  7.3229e-04  1.2316e-03  3.5860e-08  3.7978e-03  8.7438e-03  8.9315e-04 -5.5913e+00  6.1133e+00 -8.2114e-01 -2.1076e+00 -1.0725e-01  0.0000e+00  0.0000e+00  2.9658e+02  4.1347e+02  0.0000e+00  2.1019e+00  6.9344e+00  3:26:07 5930

 reversed flow in 204 faces on pressure-outlet 130. 
    71  4.0281e-03  6.5023e-04  7.3064e-04  1.2267e-03  3.6295e-08  3.7786e-03  8.6690e-03  8.4862e-04 -4.8652e+00  6.1124e+00 -7.9593e-01 -2.1076e+00 -1.0728e-01  0.0000e+00  0.0000e+00  2.9657e+02  4.1339e+02  0.0000e+00  2.1019e+00  6.9083e+00  3:25:15 5929

 reversed flow in 196 faces on pressure-outlet 130. 
    72  4.0028e-03  6.4843e-04  7.2907e-04  1.2216e-03  3.5216e-08  3.7597e-03  8.6001e-03  7.7198e-04 -4.8644e+00  6.1096e+00 -7.7745e-01 -2.1076e+00 -1.0736e-01  0.0000e+00  0.0000e+00  2.9656e+02  4.1329e+02  0.0000e+00  2.1019e+00  6.8870e+00  3:24:41 5928

 reversed flow in 184 faces on pressure-outlet 130. 
    73  3.9814e-03  6.4686e-04  7.2773e-04  1.2169e-03  3.5518e-08  3.7409e-03  8.5387e-03  6.9006e-04 -4.7069e+00  6.1095e+00 -7.6344e-01 -2.1076e+00 -1.0742e-01  0.0000e+00  0.0000e+00  2.9655e+02  4.1327e+02  0.0000e+00  2.1019e+00  6.8730e+00  3:24:37 5927

 reversed flow in 174 faces on pressure-outlet 130. 
    74  3.9737e-03  6.4538e-04  7.2619e-04  1.2125e-03  3.5144e-08  3.7218e-03  8.4741e-03  6.3069e-04 -4.3233e+00  6.1079e+00 -7.4995e-01 -2.1076e+00 -1.0747e-01  0.0000e+00  0.0000e+00  2.9654e+02  4.1346e+02  0.0000e+00  2.1019e+00  6.8578e+00  3:23:56 5926

 reversed flow in 170 faces on pressure-outlet 130. 
    75  3.9595e-03  6.4373e-04  7.2464e-04  1.2078e-03  3.4413e-08  3.7028e-03  8.4088e-03  5.9642e-04 -4.5312e+00  6.1075e+00 -7.4163e-01 -2.1076e+00 -1.0750e-01  0.0000e+00  0.0000e+00  2.9653e+02  4.1363e+02  0.0000e+00  2.1019e+00  6.8491e+00  3:23:20 5925

 reversed flow in 163 faces on pressure-outlet 130. 
    76  3.9371e-03  6.4204e-04  7.2299e-04  1.2032e-03  3.4563e-08  3.6840e-03  8.3489e-03  6.0277e-04 -4.5976e+00  6.1058e+00 -7.3031e-01 -2.1076e+00 -1.0749e-01  0.0000e+00  0.0000e+00  2.9652e+02  4.1380e+02  0.0000e+00  2.1019e+00  6.8362e+00  3:23:07 5924

 reversed flow in 152 faces on pressure-outlet 130. 
    77  3.9230e-03  6.4037e-04  7.2126e-04  1.1983e-03  3.4879e-08  3.6654e-03  8.2872e-03  6.0360e-04 -4.2683e+00  6.1047e+00 -7.1898e-01 -2.1076e+00 -1.0749e-01  0.0000e+00  0.0000e+00  2.9651e+02  4.1394e+02  0.0000e+00  2.1019e+00  6.8236e+00  3:24:14 5923

 reversed flow in 144 faces on pressure-outlet 130. 

  iter  continuity  x-velocity  y-velocity  z-velocity      energy           k     epsilon  mass_balan  heat_balan  pressure_o  pressure_c  volflow_or  volflow_co      dpm_or     dpm_cor     temp_p1    temp_max      dpm_p2  volflow_in  pressure_d     time/iter
    78  3.8991e-03  6.3851e-04  7.1942e-04  1.1934e-03  3.4157e-08  3.6474e-03  8.2263e-03  6.0648e-04 -4.0992e+00  6.1031e+00 -7.0762e-01 -2.1076e+00 -1.0749e-01  0.0000e+00  0.0000e+00  2.9650e+02  4.1424e+02  0.0000e+00  2.1019e+00  6.8107e+00  3:27:39 5922

 reversed flow in 138 faces on pressure-outlet 130. 
    79  3.8703e-03  6.3661e-04  7.1749e-04  1.1883e-03  3.3550e-08  3.6294e-03  8.1671e-03  6.2794e-04 -4.2957e+00  6.1015e+00 -6.9535e-01 -2.1076e+00 -1.0748e-01  0.0000e+00  0.0000e+00  2.9649e+02  4.1452e+02  0.0000e+00  2.1019e+00  6.7968e+00  3:26:26 5921

 reversed flow in 133 faces on pressure-outlet 130. 
/file/read-macros controlruntime.scm

    80  3.8310e-03  6.3453e-04  7.1518e-04  1.1828e-03  3.3612e-08  3.6114e-03  8.1103e-03  6.3939e-04 -4.4104e+00  6.1013e+00 -6.8260e-01 -2.1076e+00 -1.0746e-01  0.0000e+00  0.0000e+00  2.9648e+02  4.1477e+02  0.0000e+00  2.1019e+00  6.7839e+00  3:25:30 5920

 reversed flow in 129 faces on pressure-outlet 130. 
    81  3.7976e-03  6.3270e-04  7.1325e-04  1.1775e-03  3.3907e-08  3.5941e-03  8.0545e-03  6.3964e-04 -4.0871e+00  6.0993e+00 -6.6716e-01 -2.1076e+00 -1.0747e-01  0.0000e+00  0.0000e+00  2.9648e+02  4.1498e+02  0.0000e+00  2.1019e+00  6.7665e+00  3:24:46 5919

 reversed flow in 124 faces on pressure-outlet 130. 
    82  3.7801e-03  6.3073e-04  7.1127e-04  1.1720e-03  3.2862e-08  3.5768e-03  7.9982e-03  5.8851e-04 -4.4213e+00  6.0988e+00 -6.4961e-01 -2.1076e+00 -1.0751e-01  0.0000e+00  0.0000e+00  2.9647e+02  4.1516e+02  0.0000e+00  2.1019e+00  6.7484e+00  3:24:12 5918

 reversed flow in 118 faces on pressure-outlet 130. 
    83  3.7558e-03  6.2866e-04  7.0916e-04  1.1665e-03  3.2995e-08  3.5595e-03  7.9461e-03  5.2086e-04 -4.3077e+00  6.0977e+00 -6.3854e-01 -2.1076e+00 -1.0756e-01  0.0000e+00  0.0000e+00  2.9646e+02  4.1529e+02  0.0000e+00  2.1019e+00  6.7362e+00  3:23:45 5917

 reversed flow in 109 faces on pressure-outlet 130. 
    84  3.7236e-03  6.2698e-04  7.0747e-04  1.1616e-03  3.2890e-08  3.5427e-03  7.8933e-03  4.5758e-04 -4.2109e+00  6.0970e+00 -6.2801e-01 -2.1076e+00 -1.0761e-01  0.0000e+00  0.0000e+00  2.9645e+02  4.1539e+02  0.0000e+00  2.1019e+00  6.7250e+00  3:23:31 5916

 reversed flow in 104 faces on pressure-outlet 130. 
    85  3.6981e-03  6.2542e-04  7.0576e-04  1.1568e-03  3.2945e-08  3.5254e-03  7.8415e-03  4.3227e-04 -3.8939e+00  6.0952e+00 -6.2029e-01 -2.1076e+00 -1.0764e-01  0.0000e+00  0.0000e+00  2.9644e+02  4.1543e+02  0.0000e+00  2.1019e+00  6.7155e+00  3:23:18 5915

 reversed flow in 97 faces on pressure-outlet 130. 
    86  3.6875e-03  6.2383e-04  7.0416e-04  1.1520e-03  3.2393e-08  3.5086e-03  7.7863e-03  4.1850e-04 -3.6106e+00  6.0948e+00 -6.1265e-01 -2.1076e+00 -1.0765e-01  0.0000e+00  0.0000e+00  2.9643e+02  4.1544e+02  0.0000e+00  2.1019e+00  6.7075e+00  3:26:28 5914

 reversed flow in 90 faces on pressure-outlet 130. 
    87  3.6724e-03  6.2223e-04  7.0250e-04  1.1474e-03  3.2067e-08  3.4917e-03  7.7301e-03  4.2449e-04 -3.6320e+00  6.0925e+00 -6.0487e-01 -2.1076e+00 -1.0765e-01  0.0000e+00  0.0000e+00  2.9642e+02  4.1542e+02  0.0000e+00  2.1019e+00  6.6974e+00  3:25:29 5913

 reversed flow in 79 faces on pressure-outlet 130. 
    88  3.6662e-03  6.2073e-04  7.0107e-04  1.1427e-03  3.1890e-08  3.4750e-03  7.6751e-03  4.1349e-04 -3.5514e+00  6.0922e+00 -5.9776e-01 -2.1076e+00 -1.0765e-01  0.0000e+00  0.0000e+00  2.9641e+02  4.1536e+02  0.0000e+00  2.1019e+00  6.6900e+00  3:24:48 5912

 reversed flow in 79 faces on pressure-outlet 130. 

  iter  continuity  x-velocity  y-velocity  z-velocity      energy           k     epsilon  mass_balan  heat_balan  pressure_o  pressure_c  volflow_or  volflow_co      dpm_or     dpm_cor     temp_p1    temp_max      dpm_p2  volflow_in  pressure_d     time/iter
    89  3.6547e-03  6.1925e-04  6.9955e-04  1.1382e-03  3.1703e-08  3.4586e-03  7.6221e-03  4.0576e-04 -3.4277e+00  6.0907e+00 -5.8923e-01 -2.1075e+00 -1.0766e-01  0.0000e+00  0.0000e+00  2.9640e+02  4.1528e+02  0.0000e+00  2.1019e+00  6.6800e+00  3:24:12 5911

 reversed flow in 74 faces on pressure-outlet 130. 
/file/read-macros controlruntime.scm

    90  3.6516e-03  6.1794e-04  6.9821e-04  1.1338e-03  3.1102e-08  3.4420e-03  7.5713e-03  3.6135e-04 -3.8709e+00  6.0905e+00 -5.8154e-01 -2.1076e+00 -1.0770e-01  0.0000e+00  0.0000e+00  2.9639e+02  4.1516e+02  0.0000e+00  2.1019e+00  6.6720e+00  3:23:47 5910

 reversed flow in 67 faces on pressure-outlet 130. 
    91  3.6516e-03  6.1660e-04  6.9689e-04  1.1294e-03  3.1467e-08  3.4254e-03  7.5213e-03  3.0769e-04 -3.4631e+00  6.0889e+00 -5.7803e-01 -2.1075e+00 -1.0774e-01  0.0000e+00  0.0000e+00  2.9638e+02  4.1499e+02  0.0000e+00  2.1019e+00  6.6670e+00  3:23:12 5909

 reversed flow in 61 faces on pressure-outlet 130. 
    92  3.6492e-03  6.1529e-04  6.9550e-04  1.1248e-03  3.1029e-08  3.4088e-03  7.4700e-03  2.7631e-04 -3.2599e+00  6.0887e+00 -5.7420e-01 -2.1075e+00 -1.0777e-01  0.0000e+00  0.0000e+00  2.9638e+02  4.1480e+02  0.0000e+00  2.1019e+00  6.6629e+00  3:22:53 5908

 reversed flow in 57 faces on pressure-outlet 130. 
    93  3.6414e-03  6.1377e-04  6.9379e-04  1.1202e-03  3.0450e-08  3.3922e-03  7.4177e-03  2.8863e-04 -3.7004e+00  6.0871e+00 -5.7084e-01 -2.1075e+00 -1.0776e-01  0.0000e+00  0.0000e+00  2.9637e+02  4.1457e+02  0.0000e+00  2.1019e+00  6.6580e+00  3:24:05 5907

 reversed flow in 53 faces on pressure-outlet 130. 
    94  3.6297e-03  6.1227e-04  6.9201e-04  1.1157e-03  3.0862e-08  3.3757e-03  7.3617e-03  3.2343e-04 -3.3783e+00  6.0859e+00 -5.6633e-01 -2.1075e+00 -1.0773e-01  0.0000e+00  0.0000e+00  2.9636e+02  4.1431e+02  0.0000e+00  2.1019e+00  6.6522e+00  3:26:40 5906

 reversed flow in 52 faces on pressure-outlet 130. 
    95  3.6047e-03  6.1056e-04  6.8993e-04  1.1113e-03  3.0111e-08  3.3593e-03  7.3059e-03  3.4127e-04 -3.5055e+00  6.0855e+00 -5.5850e-01 -2.1075e+00 -1.0771e-01  0.0000e+00  0.0000e+00  2.9635e+02  4.1402e+02  0.0000e+00  2.1019e+00  6.6440e+00  3:25:34 5905

 reversed flow in 50 faces on pressure-outlet 130. 
    96  3.5744e-03  6.0901e-04  6.8803e-04  1.1068e-03  3.0129e-08  3.3430e-03  7.2512e-03  3.4193e-04 -3.6106e+00  6.0840e+00 -5.5012e-01 -2.1075e+00 -1.0771e-01  0.0000e+00  0.0000e+00  2.9634e+02  4.1370e+02  0.0000e+00  2.1019e+00  6.6341e+00  3:24:36 5904

 reversed flow in 45 faces on pressure-outlet 130. 
    97  3.5383e-03  6.0732e-04  6.8627e-04  1.1022e-03  2.9955e-08  3.3266e-03  7.2013e-03  3.1615e-04 -3.6010e+00  6.0836e+00 -5.4531e-01 -2.1075e+00 -1.0773e-01  0.0000e+00  0.0000e+00  2.9633e+02  4.1336e+02  0.0000e+00  2.1019e+00  6.6289e+00  3:23:56 5903

 reversed flow in 42 faces on pressure-outlet 130. 
    98  3.5094e-03  6.0559e-04  6.8435e-04  1.0980e-03  3.0082e-08  3.3106e-03  7.1516e-03  3.1429e-04 -3.3048e+00  6.0823e+00 -5.3931e-01 -2.1075e+00 -1.0774e-01  0.0000e+00  0.0000e+00  2.9632e+02  4.1299e+02  0.0000e+00  2.1019e+00  6.6216e+00  3:24:06 5902

 reversed flow in 39 faces on pressure-outlet 130. 
    99  3.4906e-03  6.0400e-04  6.8238e-04  1.0935e-03  2.9597e-08  3.2949e-03  7.1010e-03  3.0120e-04 -3.1365e+00  6.0813e+00 -5.3226e-01 -2.1075e+00 -1.0775e-01  0.0000e+00  0.0000e+00  2.9632e+02  4.1260e+02  0.0000e+00  2.1019e+00  6.6136e+00  3:23:33 5901

 reversed flow in 36 faces on pressure-outlet 130. 

  iter  continuity  x-velocity  y-velocity  z-velocity      energy           k     epsilon  mass_balan  heat_balan  pressure_o  pressure_c  volflow_or  volflow_co      dpm_or     dpm_cor     temp_p1    temp_max      dpm_p2  volflow_in  pressure_d     time/iter
/file/read-macros controlruntime.scm

   100  3.4813e-03  6.0262e-04  6.8058e-04  1.0891e-03  2.9101e-08  3.2791e-03  7.0487e-03  2.8796e-04 -3.3066e+00  6.0812e+00 -5.2656e-01 -2.1075e+00 -1.0776e-01  0.0000e+00  0.0000e+00  2.9631e+02  4.1219e+02  0.0000e+00  2.1019e+00  6.6078e+00  3:23:23 5900

 reversed flow in 34 faces on pressure-outlet 130. 
   101  3.4729e-03  6.0101e-04  6.7877e-04  1.0845e-03  2.9477e-08  3.2631e-03  6.9974e-03  2.8844e-04 -3.0957e+00  6.0811e+00 -5.2129e-01 -2.1075e+00 -1.0775e-01  0.0000e+00  0.0000e+00  2.9630e+02  4.1174e+02  0.0000e+00  2.1019e+00  6.6024e+00  3:23:12 5899

 reversed flow in 33 faces on pressure-outlet 130. 
   102  3.4684e-03  5.9940e-04  6.7699e-04  1.0801e-03  2.9118e-08  3.2472e-03  6.9475e-03  2.9865e-04 -3.0187e+00  6.0782e+00 -5.1439e-01 -2.1075e+00 -1.0775e-01  0.0000e+00  0.0000e+00  2.9629e+02  4.1127e+02  0.0000e+00  2.1019e+00  6.5926e+00  3:22:47 5898

 reversed flow in 31 faces on pressure-outlet 130. 
   103  3.4599e-03  5.9775e-04  6.7532e-04  1.0755e-03  2.8641e-08  3.2317e-03  6.8994e-03  2.8851e-04 -3.2318e+00  6.0779e+00 -5.0832e-01 -2.1075e+00 -1.0776e-01  0.0000e+00  0.0000e+00  2.9628e+02  4.1076e+02  0.0000e+00  2.1019e+00  6.5862e+00  3:26:48 5897

 reversed flow in 31 faces on pressure-outlet 130. 
   104  3.4379e-03  5.9605e-04  6.7358e-04  1.0710e-03  2.8763e-08  3.2165e-03  6.8494e-03  2.7722e-04 -3.3646e+00  6.0771e+00 -5.0182e-01 -2.1075e+00 -1.0777e-01  0.0000e+00  0.0000e+00  2.9627e+02  4.1021e+02  0.0000e+00  2.1019e+00  6.5789e+00  3:25:51 5896

 reversed flow in 28 faces on pressure-outlet 130. 
   105  3.4275e-03  5.9426e-04  6.7181e-04  1.0665e-03  2.8892e-08  3.2015e-03  6.7995e-03  2.5536e-04 -3.0814e+00  6.0765e+00 -4.9685e-01 -2.1075e+00 -1.0779e-01  0.0000e+00  0.0000e+00  2.9627e+02  4.0962e+02  0.0000e+00  2.1019e+00  6.5733e+00  3:29:16 5895

 reversed flow in 27 faces on pressure-outlet 130. 
   106  3.4136e-03  5.9255e-04  6.7016e-04  1.0620e-03  2.8451e-08  3.1869e-03  6.7509e-03  2.5489e-04 -2.9047e+00  6.0753e+00 -4.9283e-01 -2.1075e+00 -1.0779e-01  0.0000e+00  0.0000e+00  2.9626e+02  4.0899e+02  0.0000e+00  2.1019e+00  6.5682e+00  3:27:39 5894

 reversed flow in 26 faces on pressure-outlet 130. 
   107  3.3963e-03  5.9080e-04  6.6843e-04  1.0575e-03  2.8100e-08  3.1724e-03  6.7062e-03  2.3804e-04 -3.0766e+00  6.0752e+00 -4.8850e-01 -2.1075e+00 -1.0780e-01  0.0000e+00  0.0000e+00  2.9625e+02  4.0832e+02  0.0000e+00  2.1019e+00  6.5637e+00  3:26:40 5893

 reversed flow in 24 faces on pressure-outlet 130. 
   108  3.3805e-03  5.8893e-04  6.6665e-04  1.0530e-03  2.8424e-08  3.1583e-03  6.6619e-03  2.4050e-04 -2.8508e+00  6.0740e+00 -4.8495e-01 -2.1075e+00 -1.0780e-01  0.0000e+00  0.0000e+00  2.9624e+02  4.0765e+02  0.0000e+00  2.1019e+00  6.5589e+00  3:25:32 5892

 reversed flow in 24 faces on pressure-outlet 130. 
   109  3.3600e-03  5.8722e-04  6.6513e-04  1.0484e-03  2.7882e-08  3.1445e-03  6.6181e-03  2.4786e-04 -3.0463e+00  6.0733e+00 -4.8007e-01 -2.1075e+00 -1.0779e-01  0.0000e+00  0.0000e+00  2.9623e+02  4.0696e+02  0.0000e+00  2.1019e+00  6.5534e+00  3:24:42 5891

 reversed flow in 23 faces on pressure-outlet 130. 
/file/read-macros controlruntime.scm

   110  3.3391e-03  5.8539e-04  6.6325e-04  1.0439e-03  2.7922e-08  3.1309e-03  6.5759e-03  2.5903e-04 -3.0796e+00  6.0729e+00 -4.7492e-01 -2.1075e+00 -1.0778e-01  0.0000e+00  0.0000e+00  2.9623e+02  4.0627e+02  0.0000e+00  2.1019e+00  6.5479e+00  3:24:01 5890

 reversed flow in 22 faces on pressure-outlet 130. 

  iter  continuity  x-velocity  y-velocity  z-velocity      energy           k     epsilon  mass_balan  heat_balan  pressure_o  pressure_c  volflow_or  volflow_co      dpm_or     dpm_cor     temp_p1    temp_max      dpm_p2  volflow_in  pressure_d     time/iter
   111  3.3252e-03  5.8342e-04  6.6115e-04  1.0393e-03  2.7843e-08  3.1174e-03  6.5351e-03  2.4353e-04 -3.0831e+00  6.0718e+00 -4.6834e-01 -2.1075e+00 -1.0780e-01  0.0000e+00  0.0000e+00  2.9622e+02  4.0556e+02  0.0000e+00  2.1019e+00  6.5401e+00  3:27:43 5889

 reversed flow in 20 faces on pressure-outlet 130. 
   112  3.3209e-03  5.8148e-04  6.5901e-04  1.0351e-03  2.7987e-08  3.1037e-03  6.4913e-03  2.5644e-04 -2.7743e+00  6.0711e+00 -4.6577e-01 -2.1075e+00 -1.0778e-01  0.0000e+00  0.0000e+00  2.9621e+02  4.0545e+02  0.0000e+00  2.1019e+00  6.5369e+00  3:26:37 5888

 reversed flow in 19 faces on pressure-outlet 130. 
   113  3.2965e-03  5.7944e-04  6.5693e-04  1.0306e-03  2.7563e-08  3.0901e-03  6.4479e-03  2.8176e-04 -2.7027e+00  6.0704e+00 -4.6089e-01 -2.1075e+00 -1.0776e-01  0.0000e+00  0.0000e+00  2.9620e+02  4.0558e+02  0.0000e+00  2.1019e+00  6.5313e+00  3:25:26 5887

 reversed flow in 18 faces on pressure-outlet 130. 
   114  3.2811e-03  5.7740e-04  6.5483e-04  1.0263e-03  2.7308e-08  3.0768e-03  6.4070e-03  2.8072e-04 -2.8993e+00  6.0695e+00 -4.5207e-01 -2.1075e+00 -1.0777e-01  0.0000e+00  0.0000e+00  2.9619e+02  4.0593e+02  0.0000e+00  2.1019e+00  6.5215e+00  3:24:30 5886

 reversed flow in 16 faces on pressure-outlet 130. 
   115  3.2621e-03  5.7537e-04  6.5270e-04  1.0219e-03  2.7520e-08  3.0635e-03  6.3647e-03  2.5135e-04 -2.8411e+00  6.0688e+00 -4.4589e-01 -2.1075e+00 -1.0779e-01  0.0000e+00  0.0000e+00  2.9619e+02  4.0632e+02  0.0000e+00  2.1019e+00  6.5147e+00  3:23:44 5885

 reversed flow in 16 faces on pressure-outlet 130. 
   116  3.2301e-03  5.7334e-04  6.5060e-04  1.0172e-03  2.7557e-08  3.0503e-03  6.3223e-03  2.2150e-04 -2.5821e+00  6.0684e+00 -4.4024e-01 -2.1075e+00 -1.0781e-01  0.0000e+00  0.0000e+00  2.9618e+02  4.0670e+02  0.0000e+00  2.1019e+00  6.5086e+00  3:23:13 5884

 reversed flow in 16 faces on pressure-outlet 130. 
   117  3.2031e-03  5.7144e-04  6.4883e-04  1.0128e-03  2.7050e-08  3.0370e-03  6.2801e-03  2.0292e-04 -2.7222e+00  6.0674e+00 -4.3611e-01 -2.1075e+00 -1.0783e-01  0.0000e+00  0.0000e+00  2.9617e+02  4.0704e+02  0.0000e+00  2.1019e+00  6.5035e+00  3:23:01 5883

 reversed flow in 15 faces on pressure-outlet 130. 
   118  3.1889e-03  5.6958e-04  6.4716e-04  1.0087e-03  2.7114e-08  3.0237e-03  6.2408e-03  1.7752e-04 -2.7806e+00  6.0671e+00 -4.3267e-01 -2.1075e+00 -1.0785e-01  0.0000e+00  0.0000e+00  2.9616e+02  4.0734e+02  0.0000e+00  2.1019e+00  6.4998e+00  3:22:38 5882

 reversed flow in 15 faces on pressure-outlet 130. 
   119  3.1779e-03  5.6785e-04  6.4555e-04  1.0049e-03  2.7321e-08  3.0102e-03  6.1985e-03  1.7027e-04 -2.5381e+00  6.0663e+00 -4.2878e-01 -2.1075e+00 -1.0786e-01  0.0000e+00  0.0000e+00  2.9616e+02  4.0758e+02  0.0000e+00  2.1019e+00  6.4950e+00  3:25:34 5881

 reversed flow in 13 faces on pressure-outlet 130. 
/file/read-macros controlruntime.scm

   120  3.1752e-03  5.6614e-04  6.4395e-04  1.0013e-03  2.6824e-08  2.9970e-03  6.1572e-03  1.5845e-04 -2.5858e+00  6.0659e+00 -4.2768e-01 -2.1075e+00 -1.0787e-01  0.0000e+00  0.0000e+00  2.9615e+02  4.0777e+02  0.0000e+00  2.1019e+00  6.4936e+00  3:24:34 5880

 reversed flow in 12 faces on pressure-outlet 130. 
   121  3.1688e-03  5.6461e-04  6.4240e-04  9.9735e-04  2.7115e-08  2.9838e-03  6.1146e-03  1.5678e-04 -2.4204e+00  6.0653e+00 -4.2623e-01 -2.1075e+00 -1.0787e-01  0.0000e+00  0.0000e+00  2.9614e+02  4.0790e+02  0.0000e+00  2.1019e+00  6.4916e+00  3:23:52 5879

 reversed flow in 11 faces on pressure-outlet 130. 

  iter  continuity  x-velocity  y-velocity  z-velocity      energy           k     epsilon  mass_balan  heat_balan  pressure_o  pressure_c  volflow_or  volflow_co      dpm_or     dpm_cor     temp_p1    temp_max      dpm_p2  volflow_in  pressure_d     time/iter
   122  3.1552e-03  5.6314e-04  6.4084e-04  9.9361e-04  2.6657e-08  2.9705e-03  6.0729e-03  1.7527e-04 -2.5793e+00  6.0642e+00 -4.2354e-01 -2.1075e+00 -1.0785e-01  0.0000e+00  0.0000e+00  2.9613e+02  4.0797e+02  0.0000e+00  2.1019e+00  6.4877e+00  3:23:15 5878

 reversed flow in 10 faces on pressure-outlet 130. 
   123  3.1440e-03  5.6164e-04  6.3914e-04  9.8982e-04  2.6775e-08  2.9572e-03  6.0319e-03  1.9658e-04 -2.6660e+00  6.0637e+00 -4.1997e-01 -2.1075e+00 -1.0784e-01  0.0000e+00  0.0000e+00  2.9613e+02  4.0802e+02  0.0000e+00  2.1019e+00  6.4837e+00  3:22:45 5877

 reversed flow in 10 faces on pressure-outlet 130. 
   124  3.1353e-03  5.5991e-04  6.3738e-04  9.8606e-04  2.6905e-08  2.9438e-03  5.9885e-03  2.0940e-04 -2.4498e+00  6.0633e+00 -4.1571e-01 -2.1075e+00 -1.0782e-01  0.0000e+00  0.0000e+00  2.9612e+02  4.0804e+02  0.0000e+00  2.1019e+00  6.4790e+00  3:22:21 5876

 reversed flow in 10 faces on pressure-outlet 130. 
   125  3.1207e-03  5.5828e-04  6.3564e-04  9.8236e-04  2.6658e-08  2.9303e-03  5.9456e-03  2.2726e-04 -2.3113e+00  6.0624e+00 -4.1131e-01 -2.1075e+00 -1.0781e-01  0.0000e+00  0.0000e+00  2.9611e+02  4.0802e+02  0.0000e+00  2.1019e+00  6.4737e+00  3:21:53 5875

 reversed flow in 10 faces on pressure-outlet 130. 
   126  3.1003e-03  5.5645e-04  6.3371e-04  9.7871e-04  2.6375e-08  2.9168e-03  5.9069e-03  2.4409e-04 -2.4979e+00  6.0618e+00 -4.0727e-01 -2.1075e+00 -1.0780e-01  0.0000e+00  0.0000e+00  2.9610e+02  4.0796e+02  0.0000e+00  2.1019e+00  6.4690e+00  3:21:28 5874

 reversed flow in 9 faces on pressure-outlet 130. 
   127  3.0798e-03  5.5475e-04  6.3191e-04  9.7536e-04  2.6661e-08  2.9032e-03  5.8655e-03  2.3400e-04 -2.3061e+00  6.0614e+00 -4.0066e-01 -2.1075e+00 -1.0780e-01  0.0000e+00  0.0000e+00  2.9610e+02  4.0786e+02  0.0000e+00  2.1019e+00  6.4620e+00  3:24:51 5873

 reversed flow in 9 faces on pressure-outlet 130. 
   128  3.0661e-03  5.5313e-04  6.3025e-04  9.7207e-04  2.6477e-08  2.8899e-03  5.8252e-03  2.1473e-04 -2.1872e+00  6.0607e+00 -3.9570e-01 -2.1075e+00 -1.0782e-01  0.0000e+00  0.0000e+00  2.9609e+02  4.0772e+02  0.0000e+00  2.1019e+00  6.4564e+00  3:23:53 5872

 reversed flow in 9 faces on pressure-outlet 130. 
   129  3.0480e-03  5.5152e-04  6.2853e-04  9.6859e-04  2.6175e-08  2.8766e-03  5.7850e-03  1.8223e-04 -2.3732e+00  6.0605e+00 -3.9071e-01 -2.1075e+00 -1.0785e-01  0.0000e+00  0.0000e+00  2.9608e+02  4.0754e+02  0.0000e+00  2.1019e+00  6.4512e+00  3:23:21 5871

 reversed flow in 9 faces on pressure-outlet 130. 
/file/read-macros controlruntime.scm

   130  3.0450e-03  5.4990e-04  6.2688e-04  9.6516e-04  2.6349e-08  2.8635e-03  5.7440e-03  1.6452e-04 -2.4450e+00  6.0596e+00 -3.8735e-01 -2.1075e+00 -1.0786e-01  0.0000e+00  0.0000e+00  2.9607e+02  4.0760e+02  0.0000e+00  2.1019e+00  6.4470e+00  3:22:45 5870

 reversed flow in 9 faces on pressure-outlet 130. 
   131  3.0406e-03  5.4837e-04  6.2535e-04  9.6154e-04  2.6441e-08  2.8505e-03  5.7029e-03  1.5027e-04 -2.1844e+00  6.0591e+00 -3.8418e-01 -2.1075e+00 -1.0787e-01  0.0000e+00  0.0000e+00  2.9607e+02  4.0768e+02  0.0000e+00  2.1019e+00  6.4432e+00  3:22:24 5869

 reversed flow in 9 faces on pressure-outlet 130. 
   132  3.0362e-03  5.4688e-04  6.2391e-04  9.5816e-04  2.6177e-08  2.8377e-03  5.6626e-03  1.6008e-04 -2.0920e+00  6.0588e+00 -3.8329e-01 -2.1075e+00 -1.0786e-01  0.0000e+00  0.0000e+00  2.9606e+02  4.0774e+02  0.0000e+00  2.1019e+00  6.4421e+00  3:22:17 5868

 reversed flow in 7 faces on pressure-outlet 130. 

  iter  continuity  x-velocity  y-velocity  z-velocity      energy           k     epsilon  mass_balan  heat_balan  pressure_o  pressure_c  volflow_or  volflow_co      dpm_or     dpm_cor     temp_p1    temp_max      dpm_p2  volflow_in  pressure_d     time/iter
   133  3.0294e-03  5.4539e-04  6.2241e-04  9.5473e-04  2.6161e-08  2.8253e-03  5.6230e-03  1.7316e-04 -2.0907e+00  6.0580e+00 -3.7998e-01 -2.1075e+00 -1.0785e-01  0.0000e+00  0.0000e+00  2.9605e+02  4.0776e+02  0.0000e+00  2.1019e+00  6.4380e+00  3:21:50 5867

 reversed flow in 7 faces on pressure-outlet 130. 
   134  3.0177e-03  5.4374e-04  6.2074e-04  9.5131e-04  2.5933e-08  2.8125e-03  5.5847e-03  1.9907e-04 -2.2907e+00  6.0573e+00 -3.7784e-01 -2.1075e+00 -1.0783e-01  0.0000e+00  0.0000e+00  2.9605e+02  4.0775e+02  0.0000e+00  2.1019e+00  6.4351e+00  3:21:37 5866

 reversed flow in 7 faces on pressure-outlet 130. 
   135  2.9996e-03  5.4221e-04  6.1907e-04  9.4778e-04  2.6151e-08  2.8000e-03  5.5458e-03  2.0392e-04 -2.2077e+00  6.0566e+00 -3.7249e-01 -2.1075e+00 -1.0783e-01  0.0000e+00  0.0000e+00  2.9604e+02  4.0768e+02  0.0000e+00  2.1019e+00  6.4291e+00  3:21:16 5865

 reversed flow in 7 faces on pressure-outlet 130. 
   136  2.9938e-03  5.4066e-04  6.1750e-04  9.4439e-04  2.5864e-08  2.7875e-03  5.5059e-03  1.7588e-04 -2.2649e+00  6.0564e+00 -3.6608e-01 -2.1075e+00 -1.0785e-01  0.0000e+00  0.0000e+00  2.9603e+02  4.0754e+02  0.0000e+00  2.1019e+00  6.4224e+00  3:25:04 5864

 reversed flow in 6 faces on pressure-outlet 130. 
   137  2.9855e-03  5.3903e-04  6.1583e-04  9.4084e-04  2.6054e-08  2.7751e-03  5.4681e-03  1.4492e-04 -2.0452e+00  6.0556e+00 -3.6249e-01 -2.1075e+00 -1.0788e-01  0.0000e+00  0.0000e+00  2.9602e+02  4.0735e+02  0.0000e+00  2.1019e+00  6.4181e+00  3:24:03 5863

 reversed flow in 5 faces on pressure-outlet 130. 
   138  2.9558e-03  5.3742e-04  6.1429e-04  9.3725e-04  2.5738e-08  2.7626e-03  5.4314e-03  1.3271e-04 -2.1356e+00  6.0552e+00 -3.6060e-01 -2.1075e+00 -1.0789e-01  0.0000e+00  0.0000e+00  2.9602e+02  4.0709e+02  0.0000e+00  2.1019e+00  6.4158e+00  3:23:30 5862

 reversed flow in 5 faces on pressure-outlet 130. 
   139  2.9362e-03  5.3585e-04  6.1266e-04  9.3384e-04  2.5831e-08  2.7502e-03  5.3933e-03  1.4017e-04 -2.1861e+00  6.0547e+00 -3.5879e-01 -2.1075e+00 -1.0788e-01  0.0000e+00  0.0000e+00  2.9601e+02  4.0673e+02  0.0000e+00  2.1019e+00  6.4135e+00  3:23:19 5861

 reversed flow in 5 faces on pressure-outlet 130. 
/file/read-macros controlruntime.scm

   140  2.9179e-03  5.3423e-04  6.1107e-04  9.3059e-04  2.5906e-08  2.7380e-03  5.3554e-03  1.6831e-04 -1.9607e+00  6.0543e+00 -3.5702e-01 -2.1075e+00 -1.0786e-01  0.0000e+00  0.0000e+00  2.9600e+02  4.0629e+02  0.0000e+00  2.1019e+00  6.4114e+00  3:22:32 5860

 reversed flow in 5 faces on pressure-outlet 130. 
   141  2.9098e-03  5.3256e-04  6.0927e-04  9.2718e-04  2.5696e-08  2.7261e-03  5.3178e-03  1.9128e-04 -1.9916e+00  6.0535e+00 -3.5299e-01 -2.1075e+00 -1.0784e-01  0.0000e+00  0.0000e+00  2.9600e+02  4.0573e+02  0.0000e+00  2.1019e+00  6.4065e+00  3:22:04 5859

 reversed flow in 4 faces on pressure-outlet 130. 
   142  2.8934e-03  5.3098e-04  6.0768e-04  9.2384e-04  2.5710e-08  2.7140e-03  5.2821e-03  1.9921e-04 -1.8938e+00  6.0531e+00 -3.4929e-01 -2.1075e+00 -1.0783e-01  0.0000e+00  0.0000e+00  2.9599e+02  4.0507e+02  0.0000e+00  2.1019e+00  6.4024e+00  3:21:35 5858

 reversed flow in 4 faces on pressure-outlet 130. 
   143  2.8745e-03  5.2942e-04  6.0604e-04  9.2043e-04  2.5614e-08  2.7018e-03  5.2464e-03  1.8735e-04 -1.8554e+00  6.0526e+00 -3.4416e-01 -2.1075e+00 -1.0784e-01  0.0000e+00  0.0000e+00  2.9598e+02  4.0467e+02  0.0000e+00  2.1019e+00  6.3968e+00  3:21:12 5857

 reversed flow in 4 faces on pressure-outlet 130. 

  iter  continuity  x-velocity  y-velocity  z-velocity      energy           k     epsilon  mass_balan  heat_balan  pressure_o  pressure_c  volflow_or  volflow_co      dpm_or     dpm_cor     temp_p1    temp_max      dpm_p2  volflow_in  pressure_d     time/iter
   144  2.8529e-03  5.2792e-04  6.0439e-04  9.1689e-04  2.5544e-08  2.6897e-03  5.2100e-03  1.7786e-04 -1.8235e+00  6.0520e+00 -3.4154e-01 -2.1075e+00 -1.0785e-01  0.0000e+00  0.0000e+00  2.9598e+02  4.0448e+02  0.0000e+00  2.1019e+00  6.3935e+00  3:24:06 5856

 reversed flow in 4 faces on pressure-outlet 130. 
   145  2.8383e-03  5.2637e-04  6.0290e-04  9.1361e-04  2.5508e-08  2.6774e-03  5.1736e-03  1.6365e-04 -1.8266e+00  6.0516e+00 -3.3766e-01 -2.1075e+00 -1.0786e-01  0.0000e+00  0.0000e+00  2.9597e+02  4.0429e+02  0.0000e+00  2.1019e+00  6.3893e+00  3:23:12 5855

 reversed flow in 4 faces on pressure-outlet 130. 
   146  2.8376e-03  5.2479e-04  6.0140e-04  9.1040e-04  2.5351e-08  2.6652e-03  5.1373e-03  1.6007e-04 -1.9988e+00  6.0513e+00 -3.3596e-01 -2.1075e+00 -1.0786e-01  0.0000e+00  0.0000e+00  2.9596e+02  4.0411e+02  0.0000e+00  2.1019e+00  6.3872e+00  3:22:28 5854

 reversed flow in 4 faces on pressure-outlet 130. 
   147  2.8332e-03  5.2320e-04  5.9992e-04  9.0742e-04  2.5549e-08  2.6530e-03  5.1025e-03  1.6257e-04 -1.8626e+00  6.0508e+00 -3.3368e-01 -2.1075e+00 -1.0786e-01  0.0000e+00  0.0000e+00  2.9596e+02  4.0392e+02  0.0000e+00  2.1019e+00  6.3845e+00  3:21:54 5853

 reversed flow in 4 faces on pressure-outlet 130. 
   148  2.8265e-03  5.2162e-04  5.9842e-04  9.0434e-04  2.5233e-08  2.6406e-03  5.0656e-03  1.5619e-04 -1.9923e+00  6.0507e+00 -3.3032e-01 -2.1075e+00 -1.0787e-01  0.0000e+00  0.0000e+00  2.9595e+02  4.0372e+02  0.0000e+00  2.1019e+00  6.3811e+00  3:21:34 5852

 reversed flow in 4 faces on pressure-outlet 130. 
   149  2.8244e-03  5.2004e-04  5.9696e-04  9.0149e-04  2.5375e-08  2.6281e-03  5.0271e-03  1.5184e-04 -1.8292e+00  6.0497e+00 -3.2728e-01 -2.1075e+00 -1.0787e-01  0.0000e+00  0.0000e+00  2.9594e+02  4.0353e+02  0.0000e+00  2.1019e+00  6.3769e+00  3:21:07 5851

 reversed flow in 4 faces on pressure-outlet 130. 
/file/read-macros controlruntime.scm

   150  2.8130e-03  5.1854e-04  5.9544e-04  8.9857e-04  2.5247e-08  2.6157e-03  4.9892e-03  1.3938e-04 -1.7001e+00  6.0490e+00 -3.2364e-01 -2.1075e+00 -1.0788e-01  0.0000e+00  0.0000e+00  2.9594e+02  4.0333e+02  0.0000e+00  2.1019e+00  6.3726e+00  3:20:43 5850

 reversed flow in 4 faces on pressure-outlet 130. 
   151  2.8046e-03  5.1712e-04  5.9409e-04  8.9562e-04  2.5024e-08  2.6032e-03  4.9512e-03  1.3633e-04 -1.8853e+00  6.0487e+00 -3.2209e-01 -2.1075e+00 -1.0789e-01  0.0000e+00  0.0000e+00  2.9593e+02  4.0311e+02  0.0000e+00  2.1019e+00  6.3708e+00  3:20:34 5849

 reversed flow in 4 faces on pressure-outlet 130. 
   152  2.7902e-03  5.1571e-04  5.9270e-04  8.9264e-04  2.5262e-08  2.5908e-03  4.9151e-03  1.3335e-04 -1.7184e+00  6.0484e+00 -3.1916e-01 -2.1075e+00 -1.0789e-01  0.0000e+00  0.0000e+00  2.9592e+02  4.0287e+02  0.0000e+00  2.1019e+00  6.3675e+00  3:24:04 5848

 reversed flow in 3 faces on pressure-outlet 130. 
   153  2.7813e-03  5.1428e-04  5.9136e-04  8.8982e-04  2.4916e-08  2.5784e-03  4.8790e-03  1.3368e-04 -1.8167e+00  6.0480e+00 -3.1693e-01 -2.1075e+00 -1.0789e-01  0.0000e+00  0.0000e+00  2.9592e+02  4.0259e+02  0.0000e+00  2.1019e+00  6.3649e+00  3:23:14 5847

 reversed flow in 3 faces on pressure-outlet 130. 
   154  2.7575e-03  5.1281e-04  5.8997e-04  8.8681e-04  2.5128e-08  2.5664e-03  4.8422e-03  1.2729e-04 -1.6314e+00  6.0476e+00 -3.1344e-01 -2.1075e+00 -1.0789e-01  0.0000e+00  0.0000e+00  2.9591e+02  4.0228e+02  0.0000e+00  2.1019e+00  6.3611e+00  3:22:25 5846

 reversed flow in 3 faces on pressure-outlet 130. 

  iter  continuity  x-velocity  y-velocity  z-velocity      energy           k     epsilon  mass_balan  heat_balan  pressure_o  pressure_c  volflow_or  volflow_co      dpm_or     dpm_cor     temp_p1    temp_max      dpm_p2  volflow_in  pressure_d     time/iter
   155  2.7415e-03  5.1137e-04  5.8860e-04  8.8376e-04  2.4927e-08  2.5546e-03  4.8054e-03  1.2913e-04 -1.5886e+00  6.0467e+00 -3.1168e-01 -2.1075e+00 -1.0789e-01  0.0000e+00  0.0000e+00  2.9590e+02  4.0194e+02  0.0000e+00  2.1019e+00  6.3584e+00  3:22:28 5845

 reversed flow in 3 faces on pressure-outlet 130. 
   156  2.7355e-03  5.0988e-04  5.8731e-04  8.8081e-04  2.4765e-08  2.5428e-03  4.7695e-03  1.2494e-04 -1.8461e+00  6.0465e+00 -3.0885e-01 -2.1075e+00 -1.0789e-01  0.0000e+00  0.0000e+00  2.9590e+02  4.0157e+02  0.0000e+00  2.1019e+00  6.3553e+00  3:22:19 5844

 reversed flow in 3 faces on pressure-outlet 130. 
   157  2.7206e-03  5.0832e-04  5.8587e-04  8.7796e-04  2.4865e-08  2.5310e-03  4.7335e-03  1.2797e-04 -1.8228e+00  6.0463e+00 -3.0794e-01 -2.1075e+00 -1.0789e-01  0.0000e+00  0.0000e+00  2.9589e+02  4.0115e+02  0.0000e+00  2.1019e+00  6.3542e+00  3:21:43 5843

 reversed flow in 3 faces on pressure-outlet 130. 
   158  2.7060e-03  5.0687e-04  5.8453e-04  8.7527e-04  2.4889e-08  2.5190e-03  4.6974e-03  1.5197e-04 -1.6214e+00  6.0460e+00 -3.0748e-01 -2.1075e+00 -1.0787e-01  0.0000e+00  0.0000e+00  2.9589e+02  4.0070e+02  0.0000e+00  2.1019e+00  6.3535e+00  3:21:36 5842

 reversed flow in 3 faces on pressure-outlet 130. 
   159  2.6919e-03  5.0538e-04  5.8300e-04  8.7234e-04  2.4661e-08  2.5072e-03  4.6620e-03  1.7898e-04 -1.7784e+00  6.0449e+00 -3.0453e-01 -2.1075e+00 -1.0785e-01  0.0000e+00  0.0000e+00  2.9588e+02  4.0019e+02  0.0000e+00  2.1019e+00  6.3494e+00  3:21:14 5841

 reversed flow in 3 faces on pressure-outlet 130. 
/file/read-macros controlruntime.scm

   160  2.6880e-03  5.0372e-04  5.8151e-04  8.6964e-04  2.4680e-08  2.4956e-03  4.6276e-03  2.0081e-04 -1.8564e+00  6.0448e+00 -3.0273e-01 -2.1075e+00 -1.0783e-01  0.0000e+00  0.0000e+00  2.9587e+02  3.9963e+02  0.0000e+00  2.1019e+00  6.3475e+00  3:20:47 5840

 reversed flow in 3 faces on pressure-outlet 130. 
   161  2.6749e-03  5.0218e-04  5.8011e-04  8.6665e-04  2.4746e-08  2.4839e-03  4.5935e-03  2.0857e-04 -1.6651e+00  6.0441e+00 -2.9878e-01 -2.1074e+00 -1.0783e-01  0.0000e+00  0.0000e+00  2.9587e+02  3.9903e+02  0.0000e+00  2.1019e+00  6.3428e+00  3:24:21 5839

 reversed flow in 3 faces on pressure-outlet 130. 
   162  2.6678e-03  5.0067e-04  5.7879e-04  8.6363e-04  2.4492e-08  2.4721e-03  4.5593e-03  1.8933e-04 -1.7700e+00  6.0439e+00 -2.9384e-01 -2.1074e+00 -1.0784e-01  0.0000e+00  0.0000e+00  2.9586e+02  3.9841e+02  0.0000e+00  2.1019e+00  6.3378e+00  3:23:18 5838

 reversed flow in 3 faces on pressure-outlet 130. 
   163  2.6558e-03  4.9917e-04  5.7729e-04  8.6067e-04  2.4640e-08  2.4603e-03  4.5238e-03  1.5584e-04 -1.5317e+00  6.0433e+00 -2.8975e-01 -2.1074e+00 -1.0787e-01  0.0000e+00  0.0000e+00  2.9585e+02  3.9775e+02  0.0000e+00  2.1019e+00  6.3331e+00  3:22:36 5837

 reversed flow in 3 faces on pressure-outlet 130. 
   164  2.6444e-03  4.9773e-04  5.7592e-04  8.5795e-04  2.4478e-08  2.4485e-03  4.4900e-03  1.2479e-04 -1.4303e+00  6.0430e+00 -2.8741e-01 -2.1074e+00 -1.0790e-01  0.0000e+00  0.0000e+00  2.9585e+02  3.9707e+02  0.0000e+00  2.1019e+00  6.3304e+00  3:23:14 5836

 reversed flow in 3 faces on pressure-outlet 130. 
   165  2.6337e-03  4.9634e-04  5.7452e-04  8.5520e-04  2.4424e-08  2.4368e-03  4.4567e-03  1.0584e-04 -1.4089e+00  6.0427e+00 -2.8590e-01 -2.1074e+00 -1.0791e-01  0.0000e+00  0.0000e+00  2.9584e+02  3.9635e+02  0.0000e+00  2.1019e+00  6.3286e+00  3:22:30 5835

 reversed flow in 2 faces on pressure-outlet 130. 

  iter  continuity  x-velocity  y-velocity  z-velocity      energy           k     epsilon  mass_balan  heat_balan  pressure_o  pressure_c  volflow_or  volflow_co      dpm_or     dpm_cor     temp_p1    temp_max      dpm_p2  volflow_in  pressure_d     time/iter
   166  2.6244e-03  4.9517e-04  5.7325e-04  8.5256e-04  2.4398e-08  2.4251e-03  4.4225e-03  9.9227e-05 -1.3661e+00  6.0425e+00 -2.8570e-01 -2.1074e+00 -1.0792e-01  0.0000e+00  0.0000e+00  2.9584e+02  3.9614e+02  0.0000e+00  2.1019e+00  6.3282e+00  3:21:44 5834

 reversed flow in 2 faces on pressure-outlet 130. 
   167  2.6033e-03  4.9398e-04  5.7208e-04  8.4991e-04  2.4275e-08  2.4135e-03  4.3883e-03  1.1291e-04 -1.5576e+00  6.0421e+00 -2.8517e-01 -2.1074e+00 -1.0790e-01  0.0000e+00  0.0000e+00  2.9583e+02  3.9727e+02  0.0000e+00  2.1019e+00  6.3273e+00  3:21:07 5833

 reversed flow in 2 faces on pressure-outlet 130. 
   168  2.5897e-03  4.9268e-04  5.7080e-04  8.4725e-04  2.4310e-08  2.4018e-03  4.3540e-03  1.2286e-04 -1.5928e+00  6.0412e+00 -2.8290e-01 -2.1074e+00 -1.0790e-01  0.0000e+00  0.0000e+00  2.9582e+02  3.9830e+02  0.0000e+00  2.1019e+00  6.3241e+00  3:20:31 5832

 reversed flow in 2 faces on pressure-outlet 130. 
   169  2.5843e-03  4.9141e-04  5.6960e-04  8.4496e-04  2.4278e-08  2.3903e-03  4.3202e-03  1.2524e-04 -1.5659e+00  6.0412e+00 -2.8160e-01 -2.1074e+00 -1.0789e-01  0.0000e+00  0.0000e+00  2.9582e+02  3.9917e+02  0.0000e+00  2.1019e+00  6.3228e+00  3:23:41 5831

 reversed flow in 2 faces on pressure-outlet 130. 
/file/read-macros controlruntime.scm

   170  2.5733e-03  4.9020e-04  5.6841e-04  8.4270e-04  2.4233e-08  2.3790e-03  4.2878e-03  1.2093e-04 -1.5804e+00  6.0404e+00 -2.7904e-01 -2.1074e+00 -1.0790e-01  0.0000e+00  0.0000e+00  2.9581e+02  3.9991e+02  0.0000e+00  2.1019e+00  6.3194e+00  3:22:41 5830

 reversed flow in 2 faces on pressure-outlet 130. 
   171  2.5637e-03  4.8898e-04  5.6716e-04  8.4038e-04  2.4280e-08  2.3677e-03  4.2553e-03  1.0228e-04 -1.3238e+00  6.0403e+00 -2.7624e-01 -2.1074e+00 -1.0791e-01  0.0000e+00  0.0000e+00  2.9580e+02  4.0051e+02  0.0000e+00  2.1019e+00  6.3165e+00  3:21:59 5829

 reversed flow in 2 faces on pressure-outlet 130. 
   172  2.5596e-03  4.8776e-04  5.6600e-04  8.3789e-04  2.4127e-08  2.3561e-03  4.2215e-03  8.5809e-05 -1.2389e+00  6.0403e+00 -2.7449e-01 -2.1074e+00 -1.0793e-01  0.0000e+00  0.0000e+00  2.9580e+02  4.0098e+02  0.0000e+00  2.1019e+00  6.3148e+00  3:21:25 5828

 reversed flow in 2 faces on pressure-outlet 130. 
   173  2.5519e-03  4.8651e-04  5.6488e-04  8.3555e-04  2.4112e-08  2.3445e-03  4.1889e-03  8.0175e-05 -1.2190e+00  6.0396e+00 -2.7323e-01 -2.1074e+00 -1.0793e-01  0.0000e+00  0.0000e+00  2.9579e+02  4.0132e+02  0.0000e+00  2.1019e+00  6.3128e+00  3:20:48 5827

 reversed flow in 2 faces on pressure-outlet 130. 
   174  2.5465e-03  4.8528e-04  5.6382e-04  8.3328e-04  2.4030e-08  2.3331e-03  4.1568e-03  8.2872e-05 -1.3848e+00  6.0391e+00 -2.7224e-01 -2.1074e+00 -1.0793e-01  0.0000e+00  0.0000e+00  2.9579e+02  4.0154e+02  0.0000e+00  2.1019e+00  6.3114e+00  3:20:24 5826

 reversed flow in 2 faces on pressure-outlet 130. 
   175  2.5428e-03  4.8413e-04  5.6284e-04  8.3092e-04  2.4084e-08  2.3219e-03  4.1244e-03  8.3873e-05 -1.4202e+00  6.0389e+00 -2.7078e-01 -2.1074e+00 -1.0793e-01  0.0000e+00  0.0000e+00  2.9578e+02  4.0163e+02  0.0000e+00  2.1019e+00  6.3097e+00  3:20:13 5825

 reversed flow in 2 faces on pressure-outlet 130. 
   176  2.5292e-03  4.8298e-04  5.6191e-04  8.2863e-04  2.4156e-08  2.3107e-03  4.0921e-03  9.0975e-05 -1.2318e+00  6.0382e+00 -2.6980e-01 -2.1074e+00 -1.0792e-01  0.0000e+00  0.0000e+00  2.9577e+02  4.0162e+02  0.0000e+00  2.1019e+00  6.3080e+00  3:20:16 5824

 reversed flow in 2 faces on pressure-outlet 130. 

  iter  continuity  x-velocity  y-velocity  z-velocity      energy           k     epsilon  mass_balan  heat_balan  pressure_o  pressure_c  volflow_or  volflow_co      dpm_or     dpm_cor     temp_p1    temp_max      dpm_p2  volflow_in  pressure_d     time/iter
   177  2.5186e-03  4.8175e-04  5.6101e-04  8.2634e-04  2.4004e-08  2.2995e-03  4.0606e-03  9.8074e-05 -1.1882e+00  6.0377e+00 -2.6836e-01 -2.1074e+00 -1.0792e-01  0.0000e+00  0.0000e+00  2.9577e+02  4.0149e+02  0.0000e+00  2.1019e+00  6.3061e+00  3:23:12 5823

 reversed flow in 2 faces on pressure-outlet 130. 
   178  2.5172e-03  4.8052e-04  5.5990e-04  8.2407e-04  2.3927e-08  2.2883e-03  4.0291e-03  1.0121e-04 -1.3733e+00  6.0376e+00 -2.6677e-01 -2.1074e+00 -1.0791e-01  0.0000e+00  0.0000e+00  2.9576e+02  4.0098e+02  0.0000e+00  2.1019e+00  6.3043e+00  3:22:12 5822

 reversed flow in 2 faces on pressure-outlet 130. 
   179  2.5135e-03  4.7933e-04  5.5881e-04  8.2161e-04  2.4096e-08  2.2772e-03  3.9978e-03  1.0259e-04 -1.2223e+00  6.0372e+00 -2.6512e-01 -2.1074e+00 -1.0791e-01  0.0000e+00  0.0000e+00  2.9576e+02  4.0037e+02  0.0000e+00  2.1019e+00  6.3023e+00  3:21:19 5821

 reversed flow in 2 faces on pressure-outlet 130. 
/file/read-macros controlruntime.scm
Loading "././controlruntime.scm"
file/auto-save/data-frequency 100file/auto-save/case-frequency if-case-is-modifiedDone.

> 
   180  2.5062e-03  4.7804e-04  5.5765e-04  8.1922e-04  2.3843e-08  2.2663e-03  3.9662e-03  9.8013e-05 -1.3004e+00  6.0368e+00 -2.6319e-01 -2.1074e+00 -1.0792e-01  0.0000e+00  0.0000e+00  2.9575e+02  3.9972e+02  0.0000e+00  2.1019e+00  6.3000e+00  3:20:48 5820

 reversed flow in 2 faces on pressure-outlet 130. 
   181  2.5029e-03  4.7673e-04  5.5667e-04  8.1703e-04  2.4025e-08  2.2553e-03  3.9350e-03  9.4611e-05 -1.1569e+00  6.0367e+00 -2.6213e-01 -2.1074e+00 -1.0792e-01  0.0000e+00  0.0000e+00  2.9574e+02  3.9904e+02  0.0000e+00  2.1019e+00  6.2988e+00  3:20:37 5819

 reversed flow in 2 faces on pressure-outlet 130. 
   182  2.4934e-03  4.7542e-04  5.5569e-04  8.1483e-04  2.3879e-08  2.2443e-03  3.9040e-03  9.5958e-05 -1.1126e+00  6.0362e+00 -2.6064e-01 -2.1074e+00 -1.0792e-01  0.0000e+00  0.0000e+00  2.9574e+02  3.9831e+02  0.0000e+00  2.1019e+00  6.2969e+00  3:20:11 5818

 reversed flow in 2 faces on pressure-outlet 130. 
   183  2.4922e-03  4.7418e-04  5.5469e-04  8.1257e-04  2.3827e-08  2.2335e-03  3.8729e-03  9.6640e-05 -1.2933e+00  6.0357e+00 -2.5904e-01 -2.1074e+00 -1.0792e-01  0.0000e+00  0.0000e+00  2.9573e+02  3.9753e+02  0.0000e+00  2.1019e+00  6.2947e+00  3:19:50 5817

 reversed flow in 2 faces on pressure-outlet 130. 
   184  2.4837e-03  4.7294e-04  5.5368e-04  8.1030e-04  2.3894e-08  2.2228e-03  3.8429e-03  9.9172e-05 -1.3197e+00  6.0353e+00 -2.5764e-01 -2.1074e+00 -1.0792e-01  0.0000e+00  0.0000e+00  2.9573e+02  3.9670e+02  0.0000e+00  2.1019e+00  6.2929e+00  3:19:27 5816

 reversed flow in 2 faces on pressure-outlet 130. 
   185  2.4737e-03  4.7169e-04  5.5271e-04  8.0809e-04  2.3863e-08  2.2123e-03  3.8129e-03  9.5111e-05 -1.2791e+00  6.0352e+00 -2.5571e-01 -2.1074e+00 -1.0792e-01  0.0000e+00  0.0000e+00  2.9572e+02  3.9582e+02  0.0000e+00  2.1019e+00  6.2909e+00  3:23:11 5815

 reversed flow in 2 faces on pressure-outlet 130. 
   186  2.4706e-03  4.7054e-04  5.5184e-04  8.0607e-04  2.3843e-08  2.2018e-03  3.7834e-03  8.9287e-05 -1.2553e+00  6.0347e+00 -2.5442e-01 -2.1074e+00 -1.0792e-01  0.0000e+00  0.0000e+00  2.9572e+02  3.9490e+02  0.0000e+00  2.1019e+00  6.2891e+00  3:22:17 5814

 reversed flow in 2 faces on pressure-outlet 130. 
[...]
  5935  7.1541e-05  4.7245e-05  6.5050e-05  6.2245e-05  3.6047e-09  7.4024e-05  2.7882e-05 -1.6721e-07  4.4340e-02  6.0207e+00  2.7880e-03 -2.1069e+00 -1.0800e-01  0.0000e+00  0.0000e+00  2.9403e+02  3.6512e+02  0.0000e+00  2.1019e+00  6.0179e+00  0:02:16   65
  5936  7.1536e-05  4.7240e-05  6.5041e-05  6.2242e-05  3.6043e-09  7.4018e-05  2.7875e-05 -1.4298e-07  4.4362e-02  6.0207e+00  2.7854e-03 -2.1069e+00 -1.0800e-01  0.0000e+00  0.0000e+00  2.9403e+02  3.6513e+02  0.0000e+00  2.1019e+00  6.0179e+00  0:02:13   64
  5937  7.1544e-05  4.7234e-05  6.5033e-05  6.2238e-05  3.6056e-09  7.4012e-05  2.7867e-05 -7.4450e-08  4.5312e-02  6.0207e+00  2.7831e-03 -2.1069e+00 -1.0800e-01  0.0000e+00  0.0000e+00  2.9403e+02  3.6514e+02  0.0000e+00  2.1019e+00  6.0179e+00  0:02:10   63
  5938  7.1513e-05  4.7229e-05  6.5024e-05  6.2235e-05  3.6053e-09  7.4006e-05  2.7860e-05 -2.2060e-08  4.4642e-02  6.0207e+00  2.7798e-03 -2.1069e+00 -1.0800e-01  0.0000e+00  0.0000e+00  2.9403e+02  3.6515e+02  0.0000e+00  2.1019e+00  6.0179e+00  0:02:08   62
  5939  7.1518e-05  4.7223e-05  6.5015e-05  6.2233e-05  3.6041e-09  7.4000e-05  2.7852e-05  1.8822e-08  5.5394e-02  6.0207e+00  2.7769e-03 -2.1069e+00 -1.0800e-01  0.0000e+00  0.0000e+00  2.9403e+02  3.6515e+02  0.0000e+00  2.1019e+00  6.0180e+00  0:02:07   61
/file/read-macros controlruntime.scm
Loading "././controlruntime.scm"
file/auto-save/data-frequency 1000Done.

> 
  5940  7.1504e-05  4.7218e-05  6.5007e-05  6.2230e-05  3.6088e-09  7.3994e-05  2.7844e-05  1.0208e-07  4.7514e-02  6.0207e+00  2.7747e-03 -2.1069e+00 -1.0800e-01  0.0000e+00  0.0000e+00  2.9403e+02  3.6516e+02  0.0000e+00  2.1019e+00  6.0180e+00  0:02:05   60

  iter  continuity  x-velocity  y-velocity  z-velocity      energy           k     epsilon  mass_balan  heat_balan  pressure_o  pressure_c  volflow_or  volflow_co      dpm_or     dpm_cor     temp_p1    temp_max      dpm_p2  volflow_in  pressure_d     time/iter
  5941  7.1471e-05  4.7212e-05  6.4998e-05  6.2227e-05  3.6038e-09  7.3988e-05  2.7836e-05  9.0052e-08  5.7053e-02  6.0208e+00  2.7710e-03 -2.1069e+00 -1.0800e-01  0.0000e+00  0.0000e+00  2.9403e+02  3.6517e+02  0.0000e+00  2.1019e+00  6.0180e+00  0:02:03   59
  5942  7.1519e-05  4.7207e-05  6.4990e-05  6.2224e-05  3.6076e-09  7.3982e-05  2.7829e-05  9.9290e-08  4.7210e-02  6.0208e+00  2.7673e-03 -2.1069e+00 -1.0800e-01  0.0000e+00  0.0000e+00  2.9403e+02  3.6518e+02  0.0000e+00  2.1019e+00  6.0180e+00  0:02:03   58
  5943  7.1521e-05  4.7202e-05  6.4981e-05  6.2220e-05  3.6066e-09  7.3976e-05  2.7821e-05  9.3539e-08  4.4899e-02  6.0208e+00  2.7655e-03 -2.1069e+00 -1.0800e-01  0.0000e+00  0.0000e+00  2.9403e+02  3.6519e+02  0.0000e+00  2.1019e+00  6.0180e+00  0:02:01   57
  5944  7.1487e-05  4.7197e-05  6.4973e-05  6.2217e-05  3.6085e-09  7.3971e-05  2.7813e-05  1.2885e-08  4.6347e-02  6.0208e+00  2.7605e-03 -2.1069e+00 -1.0800e-01  0.0000e+00  0.0000e+00  2.9403e+02  3.6520e+02  0.0000e+00  2.1019e+00  6.0181e+00  0:01:57   56
  5945  7.1477e-05  4.7192e-05  6.4964e-05  6.2215e-05  3.6045e-09  7.3965e-05  2.7806e-05  1.1412e-08  5.7348e-02  6.0208e+00  2.7589e-03 -2.1069e+00 -1.0800e-01  0.0000e+00  0.0000e+00  2.9403e+02  3.6521e+02  0.0000e+00  2.1019e+00  6.0181e+00  0:01:54   55
  5946  7.1441e-05  4.7187e-05  6.4955e-05  6.2211e-05  3.6069e-09  7.3959e-05  2.7799e-05 -4.7365e-09  6.2336e-02  6.0208e+00  2.7585e-03 -2.1069e+00 -1.0800e-01  0.0000e+00  0.0000e+00  2.9403e+02  3.6522e+02  0.0000e+00  2.1019e+00  6.0181e+00  0:01:51   54
  5947  7.1447e-05  4.7182e-05  6.4946e-05  6.2209e-05  3.6109e-09  7.3953e-05  2.7791e-05 -3.4538e-09  5.0079e-02  6.0208e+00  2.7567e-03 -2.1069e+00 -1.0800e-01  0.0000e+00  0.0000e+00  2.9403e+02  3.6523e+02  0.0000e+00  2.1019e+00  6.0181e+00  0:01:50   53
  5948  7.1425e-05  4.7177e-05  6.4937e-05  6.2206e-05  3.6100e-09  7.3947e-05  2.7783e-05 -1.2973e-10  4.8352e-02  6.0208e+00  2.7545e-03 -2.1069e+00 -1.0800e-01  0.0000e+00  0.0000e+00  2.9403e+02  3.6524e+02  0.0000e+00  2.1019e+00  6.0181e+00  0:01:47   52
  5949  7.1400e-05  4.7171e-05  6.4929e-05  6.2203e-05  3.6109e-09  7.3941e-05  2.7775e-05 -9.0053e-08  4.7876e-02  6.0209e+00  2.7498e-03 -2.1069e+00 -1.0800e-01  0.0000e+00  0.0000e+00  2.9403e+02  3.6524e+02  0.0000e+00  2.1019e+00  6.0181e+00  0:01:44   51
/file/read-macros controlruntime.scm
Loading "././controlruntime.scm"
file/auto-save/data-frequency 1000Done.

> 
  5950  7.1384e-05  4.7166e-05  6.4920e-05  6.2200e-05  3.6090e-09  7.3935e-05  2.7768e-05 -7.3486e-08  6.1350e-02  6.0209e+00  2.7483e-03 -2.1069e+00 -1.0800e-01  0.0000e+00  0.0000e+00  2.9403e+02  3.6525e+02  0.0000e+00  2.1019e+00  6.0181e+00  0:01:44   50
  5951  7.1356e-05  4.7160e-05  6.4911e-05  6.2198e-05  3.6129e-09  7.3929e-05  2.7760e-05 -6.0905e-08  4.9827e-02  6.0209e+00  2.7471e-03 -2.1069e+00 -1.0800e-01  0.0000e+00  0.0000e+00  2.9403e+02  3.6526e+02  0.0000e+00  2.1019e+00  6.0181e+00  0:01:41   49

  iter  continuity  x-velocity  y-velocity  z-velocity      energy           k     epsilon  mass_balan  heat_balan  pressure_o  pressure_c  volflow_or  volflow_co      dpm_or     dpm_cor     temp_p1    temp_max      dpm_p2  volflow_in  pressure_d     time/iter
  5952  7.1332e-05  4.7155e-05  6.4902e-05  6.2195e-05  3.6114e-09  7.3924e-05  2.7752e-05 -1.0778e-07  6.1195e-02  6.0209e+00  2.7459e-03 -2.1069e+00 -1.0800e-01  0.0000e+00  0.0000e+00  2.9403e+02  3.6527e+02  0.0000e+00  2.1019e+00  6.0181e+00  0:01:39   48
  5953  7.1323e-05  4.7150e-05  6.4894e-05  6.2193e-05  3.6116e-09  7.3918e-05  2.7745e-05 -9.8273e-08  6.4437e-02  6.0209e+00  2.7439e-03 -2.1069e+00 -1.0800e-01  0.0000e+00  0.0000e+00  2.9403e+02  3.6528e+02  0.0000e+00  2.1019e+00  6.0181e+00  0:01:37   47
  5954  7.1325e-05  4.7145e-05  6.4885e-05  6.2190e-05  3.6146e-09  7.3912e-05  2.7737e-05 -9.7281e-08  5.5892e-02  6.0209e+00  2.7407e-03 -2.1069e+00 -1.0800e-01  0.0000e+00  0.0000e+00  2.9403e+02  3.6529e+02  0.0000e+00  2.1019e+00  6.0182e+00  0:01:34   46
  5955  7.1315e-05  4.7140e-05  6.4876e-05  6.2187e-05  3.6144e-09  7.3906e-05  2.7730e-05 -6.5562e-08  5.1380e-02  6.0209e+00  2.7390e-03 -2.1069e+00 -1.0800e-01  0.0000e+00  0.0000e+00  2.9403e+02  3.6530e+02  0.0000e+00  2.1019e+00  6.0182e+00  0:01:32   45
  5956  7.1278e-05  4.7135e-05  6.4867e-05  6.2184e-05  3.6121e-09  7.3900e-05  2.7722e-05 -6.0897e-08  6.4790e-02  6.0209e+00  2.7355e-03 -2.1069e+00 -1.0800e-01  0.0000e+00  0.0000e+00  2.9403e+02  3.6531e+02  0.0000e+00  2.1019e+00  6.0182e+00  0:01:29   44
  5957  7.1281e-05  4.7130e-05  6.4859e-05  6.2181e-05  3.6181e-09  7.3895e-05  2.7714e-05 -2.7180e-09  5.5631e-02  6.0209e+00  2.7319e-03 -2.1069e+00 -1.0800e-01  0.0000e+00  0.0000e+00  2.9403e+02  3.6532e+02  0.0000e+00  2.1019e+00  6.0182e+00  0:01:28   43
  5958  7.1241e-05  4.7124e-05  6.4850e-05  6.2178e-05  3.6211e-09  7.3889e-05  2.7706e-05 -3.0255e-07  5.3986e-02  6.0210e+00  2.7261e-03 -2.1069e+00 -1.0800e-01  0.0000e+00  0.0000e+00  2.9403e+02  3.6533e+02  0.0000e+00  2.1019e+00  6.0183e+00  0:01:26   42
  5959  7.1225e-05  4.7119e-05  6.4843e-05  6.2176e-05  3.6179e-09  7.3883e-05  2.7699e-05 -2.8950e-07  6.4808e-02  6.0210e+00  2.7244e-03 -2.1069e+00 -1.0800e-01  0.0000e+00  0.0000e+00  2.9403e+02  3.6534e+02  0.0000e+00  2.1019e+00  6.0183e+00  0:01:24   41
/file/read-macros controlruntime.scm
Loading "././controlruntime.scm"
file/auto-save/data-frequency 1000Done.

> 
  5960  7.1174e-05  4.7114e-05  6.4833e-05  6.2173e-05  3.6239e-09  7.3877e-05  2.7691e-05 -2.7421e-07  5.5137e-02  6.0210e+00  2.7228e-03 -2.1069e+00 -1.0800e-01  0.0000e+00  0.0000e+00  2.9403e+02  3.6535e+02  0.0000e+00  2.1019e+00  6.0183e+00  0:01:21   40
  5961  7.1190e-05  4.7109e-05  6.4824e-05  6.2171e-05  3.6245e-09  7.3871e-05  2.7683e-05 -2.6870e-07  5.1279e-02  6.0210e+00  2.7221e-03 -2.1069e+00 -1.0800e-01  0.0000e+00  0.0000e+00  2.9403e+02  3.6536e+02  0.0000e+00  2.1019e+00  6.0183e+00  0:01:19   39
  5962  7.1152e-05  4.7104e-05  6.4815e-05  6.2169e-05  3.6242e-09  7.3866e-05  2.7675e-05 -2.6234e-07  4.9093e-02  6.0210e+00  2.7212e-03 -2.1069e+00 -1.0800e-01  0.0000e+00  0.0000e+00  2.9403e+02  3.6537e+02  0.0000e+00  2.1019e+00  6.0183e+00  0:01:17   38

  iter  continuity  x-velocity  y-velocity  z-velocity      energy           k     epsilon  mass_balan  heat_balan  pressure_o  pressure_c  volflow_or  volflow_co      dpm_or     dpm_cor     temp_p1    temp_max      dpm_p2  volflow_in  pressure_d     time/iter
  5963  7.1133e-05  4.7099e-05  6.4806e-05  6.2166e-05  3.6223e-09  7.3860e-05  2.7667e-05 -2.5912e-07  6.1313e-02  6.0210e+00  2.7200e-03 -2.1069e+00 -1.0800e-01  0.0000e+00  0.0000e+00  2.9403e+02  3.6538e+02  0.0000e+00  2.1019e+00  6.0183e+00  0:01:15   37
  5964  7.1132e-05  4.7094e-05  6.4797e-05  6.2164e-05  3.6236e-09  7.3854e-05  2.7659e-05 -2.4057e-07  6.6871e-02  6.0210e+00  2.7171e-03 -2.1069e+00 -1.0800e-01  0.0000e+00  0.0000e+00  2.9403e+02  3.6539e+02  0.0000e+00  2.1019e+00  6.0183e+00  0:01:14   36
  5965  7.1144e-05  4.7089e-05  6.4788e-05  6.2161e-05  3.6272e-09  7.3848e-05  2.7652e-05 -3.7687e-07  6.7728e-02  6.0211e+00  2.7114e-03 -2.1069e+00 -1.0800e-01  0.0000e+00  0.0000e+00  2.9403e+02  3.6540e+02  0.0000e+00  2.1019e+00  6.0183e+00  0:01:11   35
  5966  7.1132e-05  4.7084e-05  6.4781e-05  6.2159e-05  3.6300e-09  7.3843e-05  2.7644e-05 -2.9400e-07  5.5754e-02  6.0210e+00  2.7088e-03 -2.1069e+00 -1.0800e-01  0.0000e+00  0.0000e+00  2.9403e+02  3.6541e+02  0.0000e+00  2.1019e+00  6.0183e+00  0:01:09   34
  5967  7.1091e-05  4.7079e-05  6.4772e-05  6.2156e-05  3.6282e-09  7.3837e-05  2.7637e-05 -2.4850e-07  6.4685e-02  6.0210e+00  2.7078e-03 -2.1069e+00 -1.0800e-01  0.0000e+00  0.0000e+00  2.9403e+02  3.6542e+02  0.0000e+00  2.1019e+00  6.0183e+00  0:01:07   33
  5968  7.1085e-05  4.7074e-05  6.4763e-05  6.2154e-05  3.6314e-09  7.3831e-05  2.7629e-05 -2.0150e-07  6.8341e-02  6.0211e+00  2.7055e-03 -2.1069e+00 -1.0800e-01  0.0000e+00  0.0000e+00  2.9403e+02  3.6543e+02  0.0000e+00  2.1019e+00  6.0183e+00  0:01:05   32
  5969  7.1068e-05  4.7069e-05  6.4754e-05  6.2152e-05  3.6297e-09  7.3826e-05  2.7622e-05 -1.3769e-07  6.5587e-02  6.0211e+00  2.7024e-03 -2.1069e+00 -1.0800e-01  0.0000e+00  0.0000e+00  2.9403e+02  3.6544e+02  0.0000e+00  2.1019e+00  6.0184e+00  0:01:03   31
/file/read-macros controlruntime.scm
Loading "././controlruntime.scm"
file/auto-save/data-frequency 1000Done.

> 
  5970  7.1081e-05  4.7064e-05  6.4745e-05  6.2150e-05  3.6327e-09  7.3820e-05  2.7614e-05 -9.9641e-08  6.8192e-02  6.0211e+00  2.6990e-03 -2.1069e+00 -1.0800e-01  0.0000e+00  0.0000e+00  2.9403e+02  3.6544e+02  0.0000e+00  2.1019e+00  6.0184e+00  0:01:01   30
  5971  7.1090e-05  4.7059e-05  6.4736e-05  6.2147e-05  3.6328e-09  7.3815e-05  2.7606e-05 -8.4517e-08  6.7997e-02  6.0211e+00  2.6976e-03 -2.1069e+00 -1.0800e-01  0.0000e+00  0.0000e+00  2.9403e+02  3.6545e+02  0.0000e+00  2.1019e+00  6.0184e+00  0:00:59   29
  5972  7.1098e-05  4.7054e-05  6.4727e-05  6.2145e-05  3.6310e-09  7.3809e-05  2.7599e-05 -7.1426e-08  6.9643e-02  6.0211e+00  2.6944e-03 -2.1069e+00 -1.0800e-01  0.0000e+00  0.0000e+00  2.9403e+02  3.6546e+02  0.0000e+00  2.1019e+00  6.0184e+00  0:00:57   28
  5973  7.1076e-05  4.7049e-05  6.4718e-05  6.2143e-05  3.6332e-09  7.3803e-05  2.7591e-05 -2.5820e-08  7.1819e-02  6.0211e+00  2.6913e-03 -2.1069e+00 -1.0800e-01  0.0000e+00  0.0000e+00  2.9403e+02  3.6547e+02  0.0000e+00  2.1019e+00  6.0184e+00  0:00:55   27

  iter  continuity  x-velocity  y-velocity  z-velocity      energy           k     epsilon  mass_balan  heat_balan  pressure_o  pressure_c  volflow_or  volflow_co      dpm_or     dpm_cor     temp_p1    temp_max      dpm_p2  volflow_in  pressure_d     time/iter
  5974  7.1077e-05  4.7043e-05  6.4710e-05  6.2141e-05  3.6341e-09  7.3798e-05  2.7584e-05  2.0671e-08  7.3648e-02  6.0211e+00  2.6874e-03 -2.1069e+00 -1.0800e-01  0.0000e+00  0.0000e+00  2.9403e+02  3.6548e+02  0.0000e+00  2.1019e+00  6.0184e+00  0:00:54   26
  5975  7.1065e-05  4.7039e-05  6.4701e-05  6.2138e-05  3.6393e-09  7.3792e-05  2.7576e-05 -1.2409e-07  5.6925e-02  6.0212e+00  2.6815e-03 -2.1069e+00 -1.0800e-01  0.0000e+00  0.0000e+00  2.9403e+02  3.6549e+02  0.0000e+00  2.1019e+00  6.0185e+00  0:00:52   25
  5976  7.1040e-05  4.7034e-05  6.4693e-05  6.2135e-05  3.6351e-09  7.3786e-05  2.7569e-05 -1.2228e-07  6.8530e-02  6.0212e+00  2.6814e-03 -2.1069e+00 -1.0800e-01  0.0000e+00  0.0000e+00  2.9403e+02  3.6550e+02  0.0000e+00  2.1019e+00  6.0185e+00  0:00:50   24
  5977  7.1028e-05  4.7030e-05  6.4684e-05  6.2133e-05  3.6371e-09  7.3781e-05  2.7561e-05 -1.2909e-07  7.0089e-02  6.0212e+00  2.6806e-03 -2.1069e+00 -1.0800e-01  0.0000e+00  0.0000e+00  2.9403e+02  3.6551e+02  0.0000e+00  2.1019e+00  6.0185e+00  0:00:47   23
  5978  7.1017e-05  4.7025e-05  6.4675e-05  6.2131e-05  3.6391e-09  7.3775e-05  2.7553e-05 -1.6519e-07  7.1952e-02  6.0212e+00  2.6802e-03 -2.1069e+00 -1.0800e-01  0.0000e+00  0.0000e+00  2.9403e+02  3.6552e+02  0.0000e+00  2.1019e+00  6.0185e+00  0:00:45   22
  5979  7.1035e-05  4.7020e-05  6.4666e-05  6.2129e-05  3.6452e-09  7.3769e-05  2.7545e-05 -1.2484e-07  5.7928e-02  6.0212e+00  2.6770e-03 -2.1069e+00 -1.0800e-01  0.0000e+00  0.0000e+00  2.9403e+02  3.6553e+02  0.0000e+00  2.1019e+00  6.0185e+00  0:00:43   21
/file/read-macros controlruntime.scm
Loading "././controlruntime.scm"
file/auto-save/data-frequency 1000Done.

> 
  5980  7.1022e-05  4.7015e-05  6.4657e-05  6.2128e-05  3.6395e-09  7.3764e-05  2.7537e-05 -7.7727e-08  6.7679e-02  6.0212e+00  2.6724e-03 -2.1069e+00 -1.0800e-01  0.0000e+00  0.0000e+00  2.9403e+02  3.6554e+02  0.0000e+00  2.1019e+00  6.0185e+00  0:00:41   20
  5981  7.1032e-05  4.7010e-05  6.4648e-05  6.2126e-05  3.6414e-09  7.3758e-05  2.7530e-05  1.4351e-09  5.7491e-02  6.0212e+00  2.6705e-03 -2.1069e+00 -1.0800e-01  0.0000e+00  0.0000e+00  2.9403e+02  3.6555e+02  0.0000e+00  2.1019e+00  6.0185e+00  0:00:39   19
  5982  7.1006e-05  4.7005e-05  6.4639e-05  6.2123e-05  3.6387e-09  7.3753e-05  2.7521e-05  4.6330e-10  6.9240e-02  6.0212e+00  2.6701e-03 -2.1069e+00 -1.0800e-01  0.0000e+00  0.0000e+00  2.9403e+02  3.6555e+02  0.0000e+00  2.1019e+00  6.0185e+00  0:00:37   18
  5983  7.1009e-05  4.7001e-05  6.4631e-05  6.2121e-05  3.6456e-09  7.3747e-05  2.7513e-05 -3.9898e-09  5.6229e-02  6.0212e+00  2.6661e-03 -2.1069e+00 -1.0800e-01  0.0000e+00  0.0000e+00  2.9403e+02  3.6556e+02  0.0000e+00  2.1019e+00  6.0185e+00  0:00:35   17
  5984  7.0992e-05  4.6996e-05  6.4622e-05  6.2119e-05  3.6400e-09  7.3741e-05  2.7505e-05 -1.2905e-10  6.9284e-02  6.0212e+00  2.6640e-03 -2.1069e+00 -1.0800e-01  0.0000e+00  0.0000e+00  2.9403e+02  3.6557e+02  0.0000e+00  2.1019e+00  6.0186e+00  0:00:33   16

  iter  continuity  x-velocity  y-velocity  z-velocity      energy           k     epsilon  mass_balan  heat_balan  pressure_o  pressure_c  volflow_or  volflow_co      dpm_or     dpm_cor     temp_p1    temp_max      dpm_p2  volflow_in  pressure_d     time/iter
  5985  7.0966e-05  4.6991e-05  6.4613e-05  6.2117e-05  3.6456e-09  7.3736e-05  2.7497e-05  3.8318e-08  5.9670e-02  6.0212e+00  2.6623e-03 -2.1069e+00 -1.0800e-01  0.0000e+00  0.0000e+00  2.9403e+02  3.6558e+02  0.0000e+00  2.1019e+00  6.0186e+00  0:00:31   15
  5986  7.0957e-05  4.6986e-05  6.4604e-05  6.2115e-05  3.6416e-09  7.3730e-05  2.7490e-05 -4.3545e-08  7.2593e-02  6.0213e+00  2.6553e-03 -2.1069e+00 -1.0800e-01  0.0000e+00  0.0000e+00  2.9403e+02  3.6559e+02  0.0000e+00  2.1019e+00  6.0186e+00  0:00:29   14
  5987  7.0986e-05  4.6982e-05  6.4596e-05  6.2113e-05  3.6476e-09  7.3725e-05  2.7482e-05  1.3316e-08  6.0303e-02  6.0213e+00  2.6539e-03 -2.1069e+00 -1.0800e-01  0.0000e+00  0.0000e+00  2.9403e+02  3.6560e+02  0.0000e+00  2.1019e+00  6.0186e+00  0:00:27   13
  5988  7.0918e-05  4.6977e-05  6.4587e-05  6.2110e-05  3.6454e-09  7.3720e-05  2.7474e-05  2.8575e-08  5.7485e-02  6.0213e+00  2.6519e-03 -2.1069e+00 -1.0800e-01  0.0000e+00  0.0000e+00  2.9403e+02  3.6561e+02  0.0000e+00  2.1019e+00  6.0186e+00  0:00:25   12
  5989  7.0915e-05  4.6973e-05  6.4578e-05  6.2108e-05  3.6430e-09  7.3714e-05  2.7467e-05  5.8132e-08  6.8714e-02  6.0213e+00  2.6504e-03 -2.1069e+00 -1.0800e-01  0.0000e+00  0.0000e+00  2.9403e+02  3.6562e+02  0.0000e+00  2.1019e+00  6.0186e+00  0:00:23   11
/file/read-macros controlruntime.scm
Loading "././controlruntime.scm"
file/auto-save/data-frequency 1000Done.

> 
  5990  7.0896e-05  4.6968e-05  6.4569e-05  6.2106e-05  3.6449e-09  7.3709e-05  2.7460e-05 -2.4057e-07  7.4372e-02  6.0213e+00  2.6464e-03 -2.1069e+00 -1.0800e-01  0.0000e+00  0.0000e+00  2.9403e+02  3.6563e+02  0.0000e+00  2.1019e+00  6.0187e+00  0:00:20   10
  5991  7.0918e-05  4.6963e-05  6.4561e-05  6.2104e-05  3.6472e-09  7.3703e-05  2.7452e-05 -2.4096e-07  7.6262e-02  6.0213e+00  2.6455e-03 -2.1069e+00 -1.0800e-01  0.0000e+00  0.0000e+00  2.9403e+02  3.6564e+02  0.0000e+00  2.1019e+00  6.0187e+00  0:00:18    9
  5992  7.0830e-05  4.6958e-05  6.4552e-05  6.2103e-05  3.6484e-09  7.3698e-05  2.7445e-05 -2.6774e-07  7.6083e-02  6.0213e+00  2.6440e-03 -2.1069e+00 -1.0800e-01  0.0000e+00  0.0000e+00  2.9403e+02  3.6565e+02  0.0000e+00  2.1019e+00  6.0187e+00  0:00:16    8
  5993  7.0849e-05  4.6954e-05  6.4543e-05  6.2101e-05  3.6487e-09  7.3693e-05  2.7437e-05 -2.8458e-07  7.5650e-02  6.0213e+00  2.6424e-03 -2.1069e+00 -1.0800e-01  0.0000e+00  0.0000e+00  2.9403e+02  3.6566e+02  0.0000e+00  2.1019e+00  6.0187e+00  0:00:14    7
  5994  7.0863e-05  4.6949e-05  6.4534e-05  6.2099e-05  3.6525e-09  7.3687e-05  2.7430e-05 -2.8410e-07  7.8179e-02  6.0213e+00  2.6403e-03 -2.1069e+00 -1.0800e-01  0.0000e+00  0.0000e+00  2.9403e+02  3.6567e+02  0.0000e+00  2.1019e+00  6.0187e+00  0:00:12    6
  5995  7.0839e-05  4.6945e-05  6.4525e-05  6.2097e-05  3.6504e-09  7.3682e-05  2.7423e-05 -2.2951e-07  7.4533e-02  6.0213e+00  2.6351e-03 -2.1069e+00 -1.0800e-01  0.0000e+00  0.0000e+00  2.9403e+02  3.6568e+02  0.0000e+00  2.1019e+00  6.0187e+00  0:00:10    5

  iter  continuity  x-velocity  y-velocity  z-velocity      energy           k     epsilon  mass_balan  heat_balan  pressure_o  pressure_c  volflow_or  volflow_co      dpm_or     dpm_cor     temp_p1    temp_max      dpm_p2  volflow_in  pressure_d     time/iter
  5996  7.0843e-05  4.6940e-05  6.4516e-05  6.2095e-05  3.6535e-09  7.3676e-05  2.7415e-05 -1.4920e-07  6.1877e-02  6.0214e+00  2.6315e-03 -2.1069e+00 -1.0800e-01  0.0000e+00  0.0000e+00  2.9403e+02  3.6568e+02  0.0000e+00  2.1019e+00  6.0187e+00  0:00:08    4
  5997  7.0825e-05  4.6935e-05  6.4507e-05  6.2093e-05  3.6530e-09  7.3671e-05  2.7407e-05 -8.6508e-08  5.7042e-02  6.0214e+00  2.6305e-03 -2.1069e+00 -1.0800e-01  0.0000e+00  0.0000e+00  2.9403e+02  3.6569e+02  0.0000e+00  2.1019e+00  6.0187e+00  0:00:06    3
  5998  7.0808e-05  4.6930e-05  6.4498e-05  6.2092e-05  3.6511e-09  7.3666e-05  2.7400e-05 -5.8096e-09  5.6589e-02  6.0214e+00  2.6266e-03 -2.1069e+00 -1.0800e-01  0.0000e+00  0.0000e+00  2.9403e+02  3.6570e+02  0.0000e+00  2.1019e+00  6.0187e+00  0:00:04    2
  5999  7.0789e-05  4.6927e-05  6.4489e-05  6.2089e-05  3.6508e-09  7.3660e-05  2.7393e-05  3.0801e-08  5.8804e-02  6.0214e+00  2.6214e-03 -2.1069e+00 -1.0800e-01  0.0000e+00  0.0000e+00  2.9403e+02  3.6571e+02  0.0000e+00  2.1019e+00  6.0188e+00  0:00:02    1
/file/read-macros controlruntime.scm
Loading "././controlruntime.scm"
file/auto-save/data-frequency 1000Done.

> 

Writing "| gzip -2cfv > \"OR-COR-4-06000.dat.gz\""...

Done.

  6000  7.0761e-05  4.6922e-05  6.4481e-05  6.2087e-05  3.6498e-09  7.3655e-05  2.7385e-05  8.0311e-08  7.3231e-02  6.0214e+00  2.6176e-03 -2.1069e+00 -1.0800e-01  0.0000e+00  0.0000e+00  2.9403e+02  3.6572e+02  0.0000e+00  2.1019e+00  6.0188e+00  0:00:00    0


> ; solve/set/time-step 0.01
; solve/dual-time-iterate 500 50 , , , , 
;
;
; solve/dpm-update
; report/dpm-summary
;
;
;
;
; file/confirm-overwrite yes
; file/write-case OR-COR.cas.gz yes
; file/write-data OR-COR.dat.gz yes
;
;
exit 
Posting ANSYS Product Improvement Program performance data 
Done.
