/pdc/vol/ansys/19.1/v191/fluent/fluent19.1.0/bin/fluent -r19.1.0 3ddp -gu -slurm -t 96 -mpi=ibmmpi -pib -i journal.jou
/pdc/vol/ansys/19.1/v191/fluent/fluent19.1.0/cortex/lnamd64/cortex.19.1.0 -f fluent -gu -i journal.jou (fluent "3ddp -pinfiniband  -host -r19.1.0 -t96 -mpi=ibmmpi -path/pdc/vol/ansys/19.1/v191/fluent -ssh")

WARNING:
Specified graphics driver "x11" is not available on the current runtime environment.
The most appropriate graphics driver based on the current runtime environment is: "null".
Setting graphics driver to: "null".
/pdc/vol/ansys/19.1/v191/fluent/fluent19.1.0/bin/fluent -r19.1.0 3ddp -pinfiniband -host -t96 -mpi=ibmmpi -path/pdc/vol/ansys/19.1/v191/fluent -ssh -cx t02n08.pdc.kth.se:37090:45397
Starting /pdc/vol/ansys/19.1/v191/fluent/fluent19.1.0/lnamd64/3ddp_host/fluent.19.1.0 host -cx t02n08.pdc.kth.se:37090:45397 "(list (rpsetvar (QUOTE parallel/function) "fluent 3ddp -flux -node -r19.1.0 -t96 -pinfiniband -mpi=ibmmpi -ssh") (rpsetvar (QUOTE parallel/rhost) "") (rpsetvar (QUOTE parallel/ruser) "") (rpsetvar (QUOTE parallel/nprocs_string) "96") (rpsetvar (QUOTE parallel/auto-spawn?) #t) (rpsetvar (QUOTE parallel/trace-level) 0) (rpsetvar (QUOTE parallel/remote-shell) 1) (rpsetvar (QUOTE parallel/path) "/pdc/vol/ansys/19.1/v191/fluent") (rpsetvar (QUOTE parallel/hostsfile) "") )"

              Welcome to ANSYS Fluent Release 19.1

              Copyright 1987-2018 ANSYS, Inc. All Rights Reserved.
              Unauthorized use, distribution or duplication is prohibited.
              This product is subject to U.S. laws governing export and re-export.
              For full Legal Notice, see documentation.

Build Time: Apr 09 2018 13:46:05 EDT  Build Id: 10123  
 

     --------------------------------------------------------------
     This is an academic version of ANSYS FLUENT. Usage of this product
     license is limited to the terms and conditions specified in your ANSYS
     license form, additional terms section.
     --------------------------------------------------------------
Host spawning Node 0 on machine "t02n08.pdc.kth.se" (unix).
/pdc/vol/ansys/19.1/v191/fluent/fluent19.1.0/bin/fluent -r19.1.0 3ddp -flux -node -t96 -pinfiniband -mpi=ibmmpi -ssh -mport 193.10.157.112:193.10.157.112:41115:0
-- srun ibmmpi launch --
Starting /pdc/vol/ansys/19.1/v191/fluent/fluent19.1.0/multiport/mpi/lnamd64/ibmmpi/bin/mpirun -e MPI_IBV_NO_FORK_SAFE=1 -e MPI_USE_MALLOPT_MMAP_MAX=0 -prot -IBV -e MPI_HASIC_IBV=1 -srun -n 96 /pdc/vol/ansys/19.1/v191/fluent/fluent19.1.0/lnamd64/3ddp_node/fluent_mpi.19.1.0 node -mpiw ibmmpi -pic infiniband -mport 193.10.157.112:193.10.157.112:41115:0
Host 0 -- ip 193.10.157.112 -- ranks 0 - 23
Host 1 -- ip 193.10.157.118 -- ranks 24 - 47
Host 2 -- ip 193.10.157.122 -- ranks 48 - 71
Host 3 -- ip 193.10.157.123 -- ranks 72 - 95

 host | 0    1    2    3
======|=====================
    0 : SHM  IBV  IBV  IBV
    1 : IBV  SHM  IBV  IBV
    2 : IBV  IBV  SHM  IBV
    3 : IBV  IBV  IBV  SHM

 Prot -  All Intra-node communication is: SHM
 Prot -  All Inter-node communication is: IBV


--------------------------------------------------------------------------------------
ID      Hostname           Core   O.S.      PID          Vendor                      
--------------------------------------------------------------------------------------
n72-95  t02n28.pdc.kth.se  24/48  Linux-64  26706-26729  Intel(R) Xeon(R) E5-2690 v3 
n48-71  t02n21.pdc.kth.se  24/48  Linux-64  35773-35796  Intel(R) Xeon(R) E5-2690 v3 
n24-47  t02n17.pdc.kth.se  24/48  Linux-64  26893-26916  Intel(R) Xeon(R) E5-2690 v3 
n0-23   t02n08.pdc.kth.se  24/48  Linux-64  42237-42260  Intel(R) Xeon(R) E5-2690 v3 
host    t02n08.pdc.kth.se         Linux-64  42049        Intel(R) Xeon(R) E5-2690 v3 

MPI Option Selected: ibmmpi
Selected system interconnect: InfiniBand
--------------------------------------------------------------------------------------


Posting ANSYS Product Improvement Program startup data
Done.

Reading journal file journal.jou...

> ;
;
file/read-case OR-COR-4.cas.gz

Multicore SMT processors detected. Processor affinity set!

Reading "\"| gunzip -c \\\"OR-COR-4.cas.gz\\\"\""...

Buffering for file scan...



 8039712 mixed cells, zone 73, binary.
 3209832 mixed cells, zone 74, binary.
Warning: reading 24 partition grid onto 96 compute node machine;
         will auto partition.
 8039712 cell partition ids, zone 73, 24 partitions, binary.
Warning: reading 24 partition grid onto 96 compute node machine;
         will auto partition.
 3209832 cell partition ids, zone 74, 24 partitions, binary.
16656067 mixed interior faces, zone 244, binary.
 6605687 mixed interior faces, zone 245, binary.
     574 mixed wall faces, zone 77, binary.
     574 mixed wall faces, zone  2, binary.
     574 mixed wall faces, zone 78, binary.
     574 mixed wall faces, zone  3, binary.
     574 mixed wall faces, zone 79, binary.
     574 mixed wall faces, zone  4, binary.
     574 mixed wall faces, zone 80, binary.
     574 mixed wall faces, zone  5, binary.
     574 mixed wall faces, zone 81, binary.
     574 mixed wall faces, zone  6, binary.
     898 mixed wall faces, zone 82, binary.
     898 mixed wall faces, zone  7, binary.
     574 mixed wall faces, zone 83, binary.
     574 mixed wall faces, zone  8, binary.
     572 mixed wall faces, zone 84, binary.
     572 mixed wall faces, zone  9, binary.
     574 mixed wall faces, zone 85, binary.
     574 mixed wall faces, zone 10, binary.
     574 mixed wall faces, zone 86, binary.
     574 mixed wall faces, zone 11, binary.
     574 mixed wall faces, zone 87, binary.
     574 mixed wall faces, zone 12, binary.
     574 mixed wall faces, zone 88, binary.
     574 mixed wall faces, zone 13, binary.
     574 mixed wall faces, zone 89, binary.
     574 mixed wall faces, zone 14, binary.
     572 mixed wall faces, zone 90, binary.
     572 mixed wall faces, zone 15, binary.
     574 mixed wall faces, zone 91, binary.
     574 mixed wall faces, zone 16, binary.
     574 mixed wall faces, zone 92, binary.
     574 mixed wall faces, zone 17, binary.
     574 mixed wall faces, zone 93, binary.
     574 mixed wall faces, zone 18, binary.
     572 mixed wall faces, zone 94, binary.
     572 mixed wall faces, zone 19, binary.
     574 mixed wall faces, zone 95, binary.
     574 mixed wall faces, zone 20, binary.
     574 mixed wall faces, zone 96, binary.
     574 mixed wall faces, zone 21, binary.
     574 mixed wall faces, zone 97, binary.
     574 mixed wall faces, zone 22, binary.
     574 mixed wall faces, zone 98, binary.
     574 mixed wall faces, zone 23, binary.
     574 mixed wall faces, zone 99, binary.
     574 mixed wall faces, zone 24, binary.
     574 mixed wall faces, zone 100, binary.
     574 mixed wall faces, zone 25, binary.
     574 mixed wall faces, zone 101, binary.
     574 mixed wall faces, zone 26, binary.
     574 mixed wall faces, zone 102, binary.
     574 mixed wall faces, zone 27, binary.
     574 mixed wall faces, zone 103, binary.
     574 mixed wall faces, zone 28, binary.
     572 mixed wall faces, zone 104, binary.
     572 mixed wall faces, zone 29, binary.
     574 mixed wall faces, zone 105, binary.
     574 mixed wall faces, zone 30, binary.
     572 mixed wall faces, zone 106, binary.
     572 mixed wall faces, zone 31, binary.
     574 mixed wall faces, zone 107, binary.
     574 mixed wall faces, zone 32, binary.
     572 mixed wall faces, zone 108, binary.
     572 mixed wall faces, zone 33, binary.
     574 mixed wall faces, zone 109, binary.
     574 mixed wall faces, zone 34, binary.
     574 mixed wall faces, zone 110, binary.
     574 mixed wall faces, zone 35, binary.
     574 mixed wall faces, zone 111, binary.
     574 mixed wall faces, zone 36, binary.
     572 mixed wall faces, zone 112, binary.
     572 mixed wall faces, zone 37, binary.
     574 mixed wall faces, zone 113, binary.
     574 mixed wall faces, zone 38, binary.
     572 mixed wall faces, zone 114, binary.
     572 mixed wall faces, zone 39, binary.
     574 mixed wall faces, zone 115, binary.
     574 mixed wall faces, zone 40, binary.
     574 mixed wall faces, zone 116, binary.
     574 mixed wall faces, zone 41, binary.
     574 mixed wall faces, zone 117, binary.
     574 mixed wall faces, zone 42, binary.
     572 mixed wall faces, zone 118, binary.
     572 mixed wall faces, zone 43, binary.
     574 mixed wall faces, zone 119, binary.
     574 mixed wall faces, zone 44, binary.
     574 mixed wall faces, zone 120, binary.
     574 mixed wall faces, zone 45, binary.
     574 mixed wall faces, zone 121, binary.
     574 mixed wall faces, zone 46, binary.
     574 mixed wall faces, zone 122, binary.
     574 mixed wall faces, zone 47, binary.
     574 mixed wall faces, zone 123, binary.
     574 mixed wall faces, zone 48, binary.
     572 mixed wall faces, zone 124, binary.
     572 mixed wall faces, zone 49, binary.
     976 mixed wall faces, zone 125, binary.
     976 mixed wall faces, zone 50, binary.
     574 mixed wall faces, zone 126, binary.
     574 mixed wall faces, zone 51, binary.
   42971 triangular velocity-inlet faces, zone 127, binary.
    3750 triangular pressure-outlet faces, zone 128, binary.
    1648 triangular velocity-inlet faces, zone 129, binary.
     562 triangular pressure-outlet faces, zone 130, binary.
  194098 triangular wall faces, zone 131, binary.
   98153 triangular wall faces, zone 132, binary.
    7947 triangular wall faces, zone 133, binary.
   37956 triangular wall faces, zone 134, binary.
    1826 triangular wall faces, zone 135, binary.
     916 triangular wall faces, zone 136, binary.
    6092 triangular wall faces, zone 137, binary.
     117 triangular wall faces, zone 138, binary.
     574 shadow face pairs, binary. 
     574 shadow face pairs, binary. 
     574 shadow face pairs, binary. 
     574 shadow face pairs, binary. 
     574 shadow face pairs, binary. 
     898 shadow face pairs, binary. 
     574 shadow face pairs, binary. 
     572 shadow face pairs, binary. 
     574 shadow face pairs, binary. 
     574 shadow face pairs, binary. 
     574 shadow face pairs, binary. 
     574 shadow face pairs, binary. 
     574 shadow face pairs, binary. 
     572 shadow face pairs, binary. 
     574 shadow face pairs, binary. 
     574 shadow face pairs, binary. 
     574 shadow face pairs, binary. 
     572 shadow face pairs, binary. 
     574 shadow face pairs, binary. 
     574 shadow face pairs, binary. 
     574 shadow face pairs, binary. 
     574 shadow face pairs, binary. 
     574 shadow face pairs, binary. 
     574 shadow face pairs, binary. 
     574 shadow face pairs, binary. 
     574 shadow face pairs, binary. 
     574 shadow face pairs, binary. 
     572 shadow face pairs, binary. 
     574 shadow face pairs, binary. 
     572 shadow face pairs, binary. 
     574 shadow face pairs, binary. 
     572 shadow face pairs, binary. 
     574 shadow face pairs, binary. 
     574 shadow face pairs, binary. 
     574 shadow face pairs, binary. 
     572 shadow face pairs, binary. 
     574 shadow face pairs, binary. 
     572 shadow face pairs, binary. 
     574 shadow face pairs, binary. 
     574 shadow face pairs, binary. 
     574 shadow face pairs, binary. 
     572 shadow face pairs, binary. 
     574 shadow face pairs, binary. 
     574 shadow face pairs, binary. 
     574 shadow face pairs, binary. 
     574 shadow face pairs, binary. 
     574 shadow face pairs, binary. 
     572 shadow face pairs, binary. 
     976 shadow face pairs, binary. 
     574 shadow face pairs, binary. 
 2650702 nodes, binary.
2650702 node flags, binary.
  348480 "or-inlet-profile" point-profile points, x, y, z, u, v, w.
   80802 "cor-inlet-profile" point-profile points, x, y, z, u, v, w.

Building...
     mesh
	auto partitioning mesh by Metis (fast),
	distributing mesh
		pairs..................................................,
		parts..................................................,
		faces..................................................,
		nodes..................................................,
		shadow nodes..................................................,
		cells..................................................,
        inter-node communication reduction using architecture-aware remapping: 76%
        bandwidth reduction using Reverse Cuthill-McKee: 120171/2516 = 47.7627
     materials,
     interface,
     domains,
	mixture
     zones,
	sampler
	or_equip
	or_lamp_heat
	or_lamp_wall
	or_persons
	or_table
	cor_wall
	or_wall
	cor_outlet
	cor_inlet
	or_inlet
	interior-cor
	interior-or
	or_outlet
	xdoor-d50
	xdoor-d50-shadow
	xdoor-d49
	xdoor-d49-shadow
	xdoor-d48
	xdoor-d48-shadow
	xdoor-d47
	xdoor-d47-shadow
	xdoor-d46
	xdoor-d46-shadow
	xdoor-d45
	xdoor-d45-shadow
	xdoor-d44
	xdoor-d44-shadow
	xdoor-d43
	xdoor-d43-shadow
	xdoor-d42
	xdoor-d42-shadow
	xdoor-d41
	xdoor-d41-shadow
	xdoor-d40
	xdoor-d40-shadow
	xdoor-d39
	xdoor-d39-shadow
	xdoor-d38
	xdoor-d38-shadow
	xdoor-d37
	xdoor-d37-shadow
	xdoor-d36
	xdoor-d36-shadow
	xdoor-d35
	xdoor-d35-shadow
	xdoor-d34
	xdoor-d34-shadow
	xdoor-d33
	xdoor-d33-shadow
	xdoor-d32
	xdoor-d32-shadow
	xdoor-d31
	xdoor-d31-shadow
	xdoor-d30
	xdoor-d30-shadow
	xdoor-d29
	xdoor-d29-shadow
	xdoor-d28
	xdoor-d28-shadow
	xdoor-d27
	xdoor-d27-shadow
	xdoor-d26
	xdoor-d26-shadow
	xdoor-d25
	xdoor-d25-shadow
	xdoor-d24
	xdoor-d24-shadow
	xdoor-d23
	xdoor-d23-shadow
	xdoor-d22
	xdoor-d22-shadow
	xdoor-d21
	xdoor-d21-shadow
	xdoor-d20
	xdoor-d20-shadow
	xdoor-d19
	xdoor-d19-shadow
	xdoor-d18
	xdoor-d18-shadow
	xdoor-d17
	xdoor-d17-shadow
	xdoor-d16
	xdoor-d16-shadow
	xdoor-d15
	xdoor-d15-shadow
	xdoor-d14
	xdoor-d14-shadow
	xdoor-d13
	xdoor-d13-shadow
	xdoor-d12
	xdoor-d12-shadow
	xdoor-d11
	xdoor-d11-shadow
	xdoor-d10
	xdoor-d10-shadow
	xdoor-d09
	xdoor-d09-shadow
	xdoor-d08
	xdoor-d08-shadow
	xdoor-d07
	xdoor-d07-shadow
	xdoor-d06
	xdoor-d06-shadow
	xdoor-d05
	xdoor-d05-shadow
	xdoor-d04
	xdoor-d04-shadow
	xdoor-d03
	xdoor-d03-shadow
	xdoor-d02
	xdoor-d02-shadow
	xdoor-d01
	xdoor-d01-shadow
	cor
	or
     parallel,
Done.

> file/read-data OR-COR-4-06000.dat.gz

Reading "\"| gunzip -c \\\"OR-COR-4-06000.dat.gz\\\"\""...



Parallel variables...
Done.

> ;
;
; 
;
; solve/set/under-relaxation pressure 0.7 mom 0.3 temperature 1.0  k 0.8  epsilon 0.8
;
; solve/monitors/residual/convergence-criteria 1e-5 , , , , , , , , , , , , ;
;
;
; define/boundary-conditions/outlet-vent , , , , , , , , , , , , , , ,   5.0
;
;
;
file/auto-save/case-frequency if-case-is-modified

> file/auto-save/data-frequency 500

> file/auto-save/root-name OR-COR.gz

> ;
;
;
;
; solve/initialize/initialize-flow
; solve/initialize/hyb-initialization
; solve/initialize/fmg-initialization yes
;
;
;
;
; solve/iterate 6000
solve/set/time-step 0.2

> solve/dual-time-iterate 3000 50 
Updating solution at time level N... done.
Injecting 1648 particle parcels with mass 2e-11 at t = 0

Advancing DPM injections ....
number tracked = 1648, escaped = 0, aborted = 0, trapped = 69, evaporated = 0, incomplete = 0, incomplete_parallel = 0

  iter     time/iter
/file/read-macros controlruntime.scm
Loading "././controlruntime.scm"
Done.

> 
/file/read-macros controlruntime.scm
Loading "././controlruntime.scm"
Done.

> 
/file/read-macros controlruntime.scm
Loading "././controlruntime.scm"
Done.

> 
/file/read-macros controlruntime.scm
Loading "././controlruntime.scm"
Done.

> 
/file/read-macros controlruntime.scm
Loading "././controlruntime.scm"
Done.

> 
/file/read-macros controlruntime.scm
Loading "././controlruntime.scm"
Done.

> 
  step  flow-time  volflow_or  volflow_in volflow_cor     temp_p1    temp_max pressure_or pressure_dif pressure_cor mass_balance heat_balance      dpm_p2      dpm_or     dpm_cor
     1  2.0000e-01 -2.1069e+00  2.1019e+00 -1.0800e-01  2.9403e+02  3.6572e+02  6.0214e+00  6.0188e+00  2.6176e-03  8.0311e-08  7.3231e-02  0.0000e+00  0.0000e+00  2.9101e-13
Flow time = 0.2s, time step = 1
2999 more time steps

Updating solution at time level N... done.
Injecting 1648 particle parcels with mass 2e-11 at t = 0.2

Advancing DPM injections ....
number tracked = 3227, escaped = 0, aborted = 0, trapped = 110, evaporated = 0, incomplete = 0, incomplete_parallel = 0

  iter     time/iter
/file/read-macros controlruntime.scm
Loading "././controlruntime.scm"
Done.

> 
/file/read-macros controlruntime.scm
Loading "././controlruntime.scm"
Done.

> 
/file/read-macros controlruntime.scm
Loading "././controlruntime.scm"
Done.

> 
/file/read-macros controlruntime.scm
Loading "././controlruntime.scm"
Done.

> 
/file/read-macros controlruntime.scm
Loading "././controlruntime.scm"
Done.

> 
/file/read-macros controlruntime.scm
Loading "././controlruntime.scm"
Done.

> 
  step  flow-time  volflow_or  volflow_in volflow_cor     temp_p1    temp_max pressure_or pressure_dif pressure_cor mass_balance heat_balance      dpm_p2      dpm_or     dpm_cor
     2  4.0000e-01 -2.1069e+00  2.1019e+00 -1.0800e-01  2.9403e+02  3.6572e+02  6.0214e+00  6.0188e+00  2.6176e-03  8.0311e-08  7.3231e-02  0.0000e+00  0.0000e+00  5.7252e-13
Flow time = 0.4s, time step = 2
2998 more time steps

Updating solution at time level N... done.
Injecting 1648 particle parcels with mass 2e-11 at t = 0.4

Advancing DPM injections ....
number tracked = 4765, escaped = 0, aborted = 0, trapped = 148, evaporated = 0, incomplete = 0, incomplete_parallel = 0

  iter     time/iter
/file/read-macros controlruntime.scm
Loading "././controlruntime.scm"
Done.

> 
/file/read-macros controlruntime.scm
Loading "././controlruntime.scm"
Done.

> 
/file/read-macros controlruntime.scm
Loading "././controlruntime.scm"
Done.

> 
/file/read-macros controlruntime.scm
Loading "././controlruntime.scm"
Done.

> 
/file/read-macros controlruntime.scm
Loading "././controlruntime.scm"
Done.

> 
/file/read-macros controlruntime.scm
Loading "././controlruntime.scm"
Done.

> 
  step  flow-time  volflow_or  volflow_in volflow_cor     temp_p1    temp_max pressure_or pressure_dif pressure_cor mass_balance heat_balance      dpm_p2      dpm_or     dpm_cor
     3  6.0000e-01 -2.1069e+00  2.1019e+00 -1.0800e-01  2.9403e+02  3.6572e+02  6.0214e+00  6.0188e+00  2.6176e-03  8.0311e-08  7.3231e-02  0.0000e+00  0.0000e+00  8.4537e-13
Flow time = 0.6000000000000001s, time step = 3
2997 more time steps

Updating solution at time level N... done.
Injecting 1648 particle parcels with mass 2e-11 at t = 0.6

Advancing DPM injections ....
number tracked = 6265, escaped = 0, aborted = 0, trapped = 162, evaporated = 0, incomplete = 0, incomplete_parallel = 0

  iter     time/iter
/file/read-macros controlruntime.scm
Loading "././controlruntime.scm"
Done.

> 
/file/read-macros controlruntime.scm
Loading "././controlruntime.scm"
Done.

> 
/file/read-macros controlruntime.scm
Loading "././controlruntime.scm"
Done.

> 
/file/read-macros controlruntime.scm
Loading "././controlruntime.scm"
Done.

> 
/file/read-macros controlruntime.scm
Loading "././controlruntime.scm"
Done.

> 
/file/read-macros controlruntime.scm
Loading "././controlruntime.scm"
Done.

> 
  step  flow-time  volflow_or  volflow_in volflow_cor     temp_p1    temp_max pressure_or pressure_dif pressure_cor mass_balance heat_balance      dpm_p2      dpm_or     dpm_cor
     4  8.0000e-01 -2.1069e+00  2.1019e+00 -1.0800e-01  2.9403e+02  3.6572e+02  6.0214e+00  6.0188e+00  2.6176e-03  8.0311e-08  7.3231e-02  0.0000e+00  0.0000e+00  1.1165e-12
Flow time = 0.8s, time step = 4
2996 more time steps

Updating solution at time level N... done.
Injecting 1648 particle parcels with mass 2e-11 at t = 0.8

Advancing DPM injections ....
number tracked = 7751, escaped = 0, aborted = 0, trapped = 187, evaporated = 0, incomplete = 0, incomplete_parallel = 0

  iter     time/iter
/file/read-macros controlruntime.scm
Loading "././controlruntime.scm"
Done.

> 
/file/read-macros controlruntime.scm
Loading "././controlruntime.scm"
Done.

> 
/file/read-macros controlruntime.scm
Loading "././controlruntime.scm"
Done.

> 
/file/read-macros controlruntime.scm
Loading "././controlruntime.scm"
Done.

> 
/file/read-macros controlruntime.scm
Loading "././controlruntime.scm"
Done.

> 
/file/read-macros controlruntime.scm
Loading "././controlruntime.scm"
Done.

> 
  step  flow-time  volflow_or  volflow_in volflow_cor     temp_p1    temp_max pressure_or pressure_dif pressure_cor mass_balance heat_balance      dpm_p2      dpm_or     dpm_cor
     5  1.0000e+00 -2.1069e+00  2.1019e+00 -1.0800e-01  2.9403e+02  3.6572e+02  6.0214e+00  6.0188e+00  2.6176e-03  8.0311e-08  7.3231e-02  0.0000e+00  0.0000e+00  1.3813e-12
Flow time = 1s, time step = 5
2995 more time steps

Updating solution at time level N... done.
Injecting 1648 particle parcels with mass 2e-11 at t = 1

Advancing DPM injections ....
number tracked = 9212, escaped = 0, aborted = 0, trapped = 152, evaporated = 0, incomplete = 0, incomplete_parallel = 0

  iter     time/iter
/file/read-macros controlruntime.scm
Loading "././controlruntime.scm"
Done.

> 
/file/read-macros controlruntime.scm
Loading "././controlruntime.scm"
Done.

> 
/file/read-macros controlruntime.scm
Loading "././controlruntime.scm"
Done.

> 
/file/read-macros controlruntime.scm
Loading "././controlruntime.scm"
Done.

> 
/file/read-macros controlruntime.scm
Loading "././controlruntime.scm"
Done.

> 
/file/read-macros controlruntime.scm
Loading "././controlruntime.scm"
Done.

> 
  step  flow-time  volflow_or  volflow_in volflow_cor     temp_p1    temp_max pressure_or pressure_dif pressure_cor mass_balance heat_balance      dpm_p2      dpm_or     dpm_cor
     6  1.2000e+00 -2.1069e+00  2.1019e+00 -1.0800e-01  2.9403e+02  3.6572e+02  6.0214e+00  6.0188e+00  2.6176e-03  8.0311e-08  7.3231e-02  0.0000e+00  0.0000e+00  1.6492e-12
Flow time = 1.2s, time step = 6
2994 more time steps

Updating solution at time level N... done.
Injecting 1648 particle parcels with mass 2e-11 at t = 1.2

Advancing DPM injections ....
number tracked = 10708, escaped = 0, aborted = 0, trapped = 202, evaporated = 0, incomplete = 0, incomplete_parallel = 0

  iter     time/iter
/file/read-macros controlruntime.scm
Loading "././controlruntime.scm"
Done.

> 
/file/read-macros controlruntime.scm
Loading "././controlruntime.scm"
Done.

> 
/file/read-macros controlruntime.scm
Loading "././controlruntime.scm"
Done.

> 
/file/read-macros controlruntime.scm
Loading "././controlruntime.scm"
Done.

> 
/file/read-macros controlruntime.scm
Loading "././controlruntime.scm"
Done.

> 
/file/read-macros controlruntime.scm
Loading "././controlruntime.scm"
Done.

> 
  step  flow-time  volflow_or  volflow_in volflow_cor     temp_p1    temp_max pressure_or pressure_dif pressure_cor mass_balance heat_balance      dpm_p2      dpm_or     dpm_cor
     7  1.4000e+00 -2.1069e+00  2.1019e+00 -1.0800e-01  2.9403e+02  3.6572e+02  6.0214e+00  6.0188e+00  2.6176e-03  8.0311e-08  7.3231e-02  0.0000e+00  0.0000e+00  1.9149e-12
Flow time = 1.4s, time step = 7
2993 more time steps

Updating solution at time level N... done.
Injecting 1648 particle parcels with mass 2e-11 at t = 1.4

Advancing DPM injections ....
number tracked = 12154, escaped = 0, aborted = 0, trapped = 187, evaporated = 0, incomplete = 0, incomplete_parallel = 0

  iter     time/iter
/file/read-macros controlruntime.scm
Loading "././controlruntime.scm"
Done.

> 
/file/read-macros controlruntime.scm
Loading "././controlruntime.scm"
Done.

> 
/file/read-macros controlruntime.scm
Loading "././controlruntime.scm"
Done.

> 
/file/read-macros controlruntime.scm
Loading "././controlruntime.scm"
Done.

> 
/file/read-macros controlruntime.scm
Loading "././controlruntime.scm"
Done.

> 
/file/read-macros controlruntime.scm
Loading "././controlruntime.scm"
Done.

> 
  step  flow-time  volflow_or  volflow_in volflow_cor     temp_p1    temp_max pressure_or pressure_dif pressure_cor mass_balance heat_balance      dpm_p2      dpm_or     dpm_cor
     8  1.6000e+00 -2.1069e+00  2.1019e+00 -1.0800e-01  2.9403e+02  3.6572e+02  6.0214e+00  6.0188e+00  2.6176e-03  8.0311e-08  7.3231e-02  0.0000e+00  0.0000e+00  2.1784e-12
Flow time = 1.6s, time step = 8
2992 more time steps

Updating solution at time level N... done.
Injecting 1648 particle parcels with mass 2e-11 at t = 1.6

Advancing DPM injections ....
number tracked = 13615, escaped = 0, aborted = 0, trapped = 192, evaporated = 0, incomplete = 0, incomplete_parallel = 0

  iter     time/iter
/file/read-macros controlruntime.scm
Loading "././controlruntime.scm"
Done.

> 
/file/read-macros controlruntime.scm
Loading "././controlruntime.scm"
Done.

> 
/file/read-macros controlruntime.scm
Loading "././controlruntime.scm"
Done.

> 
/file/read-macros controlruntime.scm
Loading "././controlruntime.scm"
Done.

> 
/file/read-macros controlruntime.scm
Loading "././controlruntime.scm"
Done.

> 
/file/read-macros controlruntime.scm
Loading "././controlruntime.scm"
Done.

> 
  step  flow-time  volflow_or  volflow_in volflow_cor     temp_p1    temp_max pressure_or pressure_dif pressure_cor mass_balance heat_balance      dpm_p2      dpm_or     dpm_cor
     9  1.8000e+00 -2.1069e+00  2.1019e+00 -1.0800e-01  2.9403e+02  3.6572e+02  6.0214e+00  6.0188e+00  2.6176e-03  8.0311e-08  7.3231e-02  0.0000e+00  0.0000e+00  2.4412e-12
Flow time = 1.8s, time step = 9
2991 more time steps

Updating solution at time level N... done.
Injecting 1648 particle parcels with mass 2e-11 at t = 1.8

Advancing DPM injections ....
number tracked = 15071, escaped = 0, aborted = 0, trapped = 200, evaporated = 0, incomplete = 0, incomplete_parallel = 0

  iter     time/iter
/file/read-macros controlruntime.scm
Loading "././controlruntime.scm"
Done.

> 
/file/read-macros controlruntime.scm
Loading "././controlruntime.scm"
Done.

> 
/file/read-macros controlruntime.scm
Loading "././controlruntime.scm"
Done.

> 
/file/read-macros controlruntime.scm
Loading "././controlruntime.scm"
Done.

> 
/file/read-macros controlruntime.scm
Loading "././controlruntime.scm"
Done.

> 
/file/read-macros controlruntime.scm
Loading "././controlruntime.scm"
Done.

> 
  step  flow-time  volflow_or  volflow_in volflow_cor     temp_p1    temp_max pressure_or pressure_dif pressure_cor mass_balance heat_balance      dpm_p2      dpm_or     dpm_cor
    10  2.0000e+00 -2.1069e+00  2.1019e+00 -1.0800e-01  2.9403e+02  3.6572e+02  6.0214e+00  6.0188e+00  2.6176e-03  8.0311e-08  7.3231e-02  0.0000e+00  0.0000e+00  2.7040e-12
Flow time = 2s, time step = 10
2990 more time steps

Updating solution at time level N... done.
Injecting 1648 particle parcels with mass 2e-11 at t = 2

Advancing DPM injections ....
number tracked = 16519, escaped = 0, aborted = 0, trapped = 218, evaporated = 0, incomplete = 0, incomplete_parallel = 0

  iter     time/iter
/file/read-macros controlruntime.scm
Loading "././controlruntime.scm"
Done.

> 
/file/read-macros controlruntime.scm
Loading "././controlruntime.scm"
Done.

> 
/file/read-macros controlruntime.scm
Loading "././controlruntime.scm"
Done.

> 
/file/read-macros controlruntime.scm
Loading "././controlruntime.scm"
Done.

> 
/file/read-macros controlruntime.scm
Loading "././controlruntime.scm"
Done.

> 
/file/read-macros controlruntime.scm
Loading "././controlruntime.scm"
Done.

> 
  step  flow-time  volflow_or  volflow_in volflow_cor     temp_p1    temp_max pressure_or pressure_dif pressure_cor mass_balance heat_balance      dpm_p2      dpm_or     dpm_cor
    11  2.2000e+00 -2.1069e+00  2.1019e+00 -1.0800e-01  2.9403e+02  3.6572e+02  6.0214e+00  6.0188e+00  2.6176e-03  8.0311e-08  7.3231e-02  0.0000e+00  0.0000e+00  2.9662e-12
Flow time = 2.2s, time step = 11
2989 more time steps

Updating solution at time level N... done.
Injecting 1648 particle parcels with mass 2e-11 at t = 2.2

Advancing DPM injections ....
number tracked = 17949, escaped = 0, aborted = 0, trapped = 213, evaporated = 0, incomplete = 0, incomplete_parallel = 0

  iter     time/iter
/file/read-macros controlruntime.scm
Loading "././controlruntime.scm"
Done.

> 
/file/read-macros controlruntime.scm
Loading "././controlruntime.scm"
Done.

> 
/file/read-macros controlruntime.scm
Loading "././controlruntime.scm"
Done.

> 
/file/read-macros controlruntime.scm
Loading "././controlruntime.scm"
Done.

> 
/file/read-macros controlruntime.scm
Loading "././controlruntime.scm"
Done.

> 
/file/read-macros controlruntime.scm
Loading "././controlruntime.scm"
Done.

> 
  step  flow-time  volflow_or  volflow_in volflow_cor     temp_p1    temp_max pressure_or pressure_dif pressure_cor mass_balance heat_balance      dpm_p2      dpm_or     dpm_cor
    12  2.4000e+00 -2.1069e+00  2.1019e+00 -1.0800e-01  2.9403e+02  3.6572e+02  6.0214e+00  6.0188e+00  2.6176e-03  8.0311e-08  7.3231e-02  0.0000e+00  0.0000e+00  3.2262e-12
Flow time = 2.4s, time step = 12
2988 more time steps

Updating solution at time level N... done.
Injecting 1648 particle parcels with mass 2e-11 at t = 2.4

Advancing DPM injections ....
number tracked = 19384, escaped = 0, aborted = 0, trapped = 209, evaporated = 0, incomplete = 0, incomplete_parallel = 0

  iter     time/iter
/file/read-macros controlruntime.scm
Loading "././controlruntime.scm"
Done.

> 
/file/read-macros controlruntime.scm
Loading "././controlruntime.scm"
Done.

> 
/file/read-macros controlruntime.scm
Loading "././controlruntime.scm"
Done.

> 
/file/read-macros controlruntime.scm
Loading "././controlruntime.scm"
Done.

> 
/file/read-macros controlruntime.scm
Loading "././controlruntime.scm"
Done.

> 
/file/read-macros controlruntime.scm
Loading "././controlruntime.scm"
Done.

> 
  step  flow-time  volflow_or  volflow_in volflow_cor     temp_p1    temp_max pressure_or pressure_dif pressure_cor mass_balance heat_balance      dpm_p2      dpm_or     dpm_cor
    13  2.6000e+00 -2.1069e+00  2.1019e+00 -1.0800e-01  2.9403e+02  3.6572e+02  6.0214e+00  6.0188e+00  2.6176e-03  8.0311e-08  7.3231e-02  0.0000e+00  0.0000e+00  3.4860e-12
Flow time = 2.6s, time step = 13
2987 more time steps

Updating solution at time level N... done.
Injecting 1648 particle parcels with mass 2e-11 at t = 2.6

Advancing DPM injections ....
number tracked = 20823, escaped = 0, aborted = 0, trapped = 203, evaporated = 0, incomplete = 0, incomplete_parallel = 0

  iter     time/iter
/file/read-macros controlruntime.scm
Loading "././controlruntime.scm"
Done.

> 
/file/read-macros controlruntime.scm
Loading "././controlruntime.scm"
Done.

> 
/file/read-macros controlruntime.scm
Loading "././controlruntime.scm"
Done.

> 
/file/read-macros controlruntime.scm
Loading "././controlruntime.scm"
/solve/execute-commands add-edit control-run-time Editing control-run-time
10 
Options: "iteration" "time-step"
"time-step"  "/file/read-macros controlruntime.scm"  Done.

> 
  step  flow-time  volflow_or  volflow_in volflow_cor     temp_p1    temp_max pressure_or pressure_dif pressure_cor mass_balance heat_balance      dpm_p2      dpm_or     dpm_cor
    14  2.8000e+00 -2.1069e+00  2.1019e+00 -1.0800e-01  2.9403e+02  3.6572e+02  6.0214e+00  6.0188e+00  2.6176e-03  8.0311e-08  7.3231e-02  0.0000e+00  0.0000e+00  3.7474e-12
Flow time = 2.8s, time step = 14
2986 more time steps

Updating solution at time level N... done.
Injecting 1648 particle parcels with mass 2e-11 at t = 2.8

Advancing DPM injections ....
number tracked = 22268, escaped = 0, aborted = 0, trapped = 199, evaporated = 0, incomplete = 0, incomplete_parallel = 0

  iter     time/iter
  step  flow-time  volflow_or  volflow_in volflow_cor     temp_p1    temp_max pressure_or pressure_dif pressure_cor mass_balance heat_balance      dpm_p2      dpm_or     dpm_cor
    15  3.0000e+00 -2.1069e+00  2.1019e+00 -1.0800e-01  2.9403e+02  3.6572e+02  6.0214e+00  6.0188e+00  2.6176e-03  8.0311e-08  7.3231e-02  0.0000e+00  0.0000e+00  4.0099e-12
Flow time = 3s, time step = 15
2985 more time steps

Updating solution at time level N... done.
Injecting 1648 particle parcels with mass 2e-11 at t = 3

Advancing DPM injections ....
number tracked = 23717, escaped = 0, aborted = 0, trapped = 201, evaporated = 0, incomplete = 0, incomplete_parallel = 0

  iter     time/iter
  step  flow-time  volflow_or  volflow_in volflow_cor     temp_p1    temp_max pressure_or pressure_dif pressure_cor mass_balance heat_balance      dpm_p2      dpm_or     dpm_cor
    16  3.2000e+00 -2.1069e+00  2.1019e+00 -1.0800e-01  2.9403e+02  3.6572e+02  6.0214e+00  6.0188e+00  2.6176e-03  8.0311e-08  7.3231e-02  0.0000e+00  0.0000e+00  4.2703e-12
Flow time = 3.2s, time step = 16
2984 more time steps

Updating solution at time level N... done.
Injecting 1648 particle parcels with mass 2e-11 at t = 3.2

Advancing DPM injections ....
number tracked = 25164, escaped = 0, aborted = 0, trapped = 218, evaporated = 0, incomplete = 0, incomplete_parallel = 0

  iter     time/iter
  step  flow-time  volflow_or  volflow_in volflow_cor     temp_p1    temp_max pressure_or pressure_dif pressure_cor mass_balance heat_balance      dpm_p2      dpm_or     dpm_cor
    17  3.4000e+00 -2.1069e+00  2.1019e+00 -1.0800e-01  2.9403e+02  3.6572e+02  6.0214e+00  6.0188e+00  2.6176e-03  8.0311e-08  7.3231e-02  0.0000e+00  0.0000e+00  4.5312e-12
Flow time = 3.4s, time step = 17
2983 more time steps

Updating solution at time level N... done.
Injecting 1648 particle parcels with mass 2e-11 at t = 3.4

Advancing DPM injections ....
number tracked = 26594, escaped = 0, aborted = 0, trapped = 199, evaporated = 0, incomplete = 0, incomplete_parallel = 0

  iter     time/iter
  step  flow-time  volflow_or  volflow_in volflow_cor     temp_p1    temp_max pressure_or pressure_dif pressure_cor mass_balance heat_balance      dpm_p2      dpm_or     dpm_cor
    18  3.6000e+00 -2.1069e+00  2.1019e+00 -1.0800e-01  2.9403e+02  3.6572e+02  6.0214e+00  6.0188e+00  2.6176e-03  8.0311e-08  7.3231e-02  0.0000e+00  0.0000e+00  4.7910e-12
Flow time = 3.6s, time step = 18
2982 more time steps

Updating solution at time level N... done.
Injecting 1648 particle parcels with mass 2e-11 at t = 3.6

Advancing DPM injections ....
number tracked = 28043, escaped = 0, aborted = 0, trapped = 186, evaporated = 0, incomplete = 0, incomplete_parallel = 0

  iter     time/iter
  step  flow-time  volflow_or  volflow_in volflow_cor     temp_p1    temp_max pressure_or pressure_dif pressure_cor mass_balance heat_balance      dpm_p2      dpm_or     dpm_cor
    19  3.8000e+00 -2.1069e+00  2.1019e+00 -1.0800e-01  2.9403e+02  3.6572e+02  6.0214e+00  6.0188e+00  2.6176e-03  8.0311e-08  7.3231e-02  0.0000e+00  0.0000e+00  5.0551e-12
Flow time = 3.8s, time step = 19
2981 more time steps

Updating solution at time level N... done.
Injecting 1648 particle parcels with mass 2e-11 at t = 3.8

Advancing DPM injections ....
number tracked = 29505, escaped = 0, aborted = 0, trapped = 214, evaporated = 0, incomplete = 0, incomplete_parallel = 0

  iter     time/iter
/file/read-macros controlruntime.scm
Loading "././controlruntime.scm"
/solve/execute-commands add-edit control-run-time Editing control-run-time
10 
Options: "iteration" "time-step"
"time-step"  "/file/read-macros controlruntime.scm"  Done.

> 
  step  flow-time  volflow_or  volflow_in volflow_cor     temp_p1    temp_max pressure_or pressure_dif pressure_cor mass_balance heat_balance      dpm_p2      dpm_or     dpm_cor
    20  4.0000e+00 -2.1069e+00  2.1019e+00 -1.0800e-01  2.9403e+02  3.6572e+02  6.0214e+00  6.0188e+00  2.6176e-03  8.0311e-08  7.3231e-02  0.0000e+00  0.0000e+00  5.3168e-12
Flow time = 4s, time step = 20
2980 more time steps

Updating solution at time level N... done.
Injecting 1648 particle parcels with mass 2e-11 at t = 4

Advancing DPM injections ....
number tracked = 30939, escaped = 0, aborted = 0, trapped = 201, evaporated = 0, incomplete = 0, incomplete_parallel = 0

  iter     time/iter
  step  flow-time  volflow_or  volflow_in volflow_cor     temp_p1    temp_max pressure_or pressure_dif pressure_cor mass_balance heat_balance      dpm_p2      dpm_or     dpm_cor
    21  4.2000e+00 -2.1069e+00  2.1019e+00 -1.0800e-01  2.9403e+02  3.6572e+02  6.0214e+00  6.0188e+00  2.6176e-03  8.0311e-08  7.3231e-02  0.0000e+00  0.0000e+00  5.5766e-12
Flow time = 4.2s, time step = 21
2979 more time steps

Updating solution at time level N... done.
Injecting 1648 particle parcels with mass 2e-11 at t = 4.2

Advancing DPM injections ....
number tracked = 32386, escaped = 0, aborted = 0, trapped = 233, evaporated = 0, incomplete = 0, incomplete_parallel = 0

  iter     time/iter
  step  flow-time  volflow_or  volflow_in volflow_cor     temp_p1    temp_max pressure_or pressure_dif pressure_cor mass_balance heat_balance      dpm_p2      dpm_or     dpm_cor
    22  4.4000e+00 -2.1069e+00  2.1019e+00 -1.0800e-01  2.9403e+02  3.6572e+02  6.0214e+00  6.0188e+00  2.6176e-03  8.0311e-08  7.3231e-02  0.0000e+00  0.0000e+00  5.8364e-12
Flow time = 4.4s, time step = 22
2978 more time steps

Updating solution at time level N... done.
Injecting 1648 particle parcels with mass 2e-11 at t = 4.4

Advancing DPM injections ....
number tracked = 33801, escaped = 0, aborted = 0, trapped = 216, evaporated = 0, incomplete = 0, incomplete_parallel = 0

  iter     time/iter
  step  flow-time  volflow_or  volflow_in volflow_cor     temp_p1    temp_max pressure_or pressure_dif pressure_cor mass_balance heat_balance      dpm_p2      dpm_or     dpm_cor
    23  4.6000e+00 -2.1069e+00  2.1019e+00 -1.0800e-01  2.9403e+02  3.6572e+02  6.0214e+00  6.0188e+00  2.6176e-03  8.0311e-08  7.3231e-02  0.0000e+00  0.0000e+00  6.0932e-12
Flow time = 4.600000000000001s, time step = 23
2977 more time steps

Updating solution at time level N... done.
Injecting 1648 particle parcels with mass 2e-11 at t = 4.6

Advancing DPM injections ....
number tracked = 35233, escaped = 1, aborted = 0, trapped = 199, evaporated = 0, incomplete = 0, incomplete_parallel = 0

  iter     time/iter
  step  flow-time  volflow_or  volflow_in volflow_cor     temp_p1    temp_max pressure_or pressure_dif pressure_cor mass_balance heat_balance      dpm_p2      dpm_or     dpm_cor
    24  4.8000e+00 -2.1069e+00  2.1019e+00 -1.0800e-01  2.9403e+02  3.6572e+02  6.0214e+00  6.0188e+00  2.6176e-03  8.0311e-08  7.3231e-02  0.0000e+00  0.0000e+00  6.3539e-12
Flow time = 4.800000000000001s, time step = 24
2976 more time steps

Updating solution at time level N... done.
Injecting 1648 particle parcels with mass 2e-11 at t = 4.8

Advancing DPM injections ....
number tracked = 36681, escaped = 0, aborted = 0, trapped = 227, evaporated = 0, incomplete = 0, incomplete_parallel = 0

  iter     time/iter
  step  flow-time  volflow_or  volflow_in volflow_cor     temp_p1    temp_max pressure_or pressure_dif pressure_cor mass_balance heat_balance      dpm_p2      dpm_or     dpm_cor
    25  5.0000e+00 -2.1069e+00  2.1019e+00 -1.0800e-01  2.9403e+02  3.6572e+02  6.0214e+00  6.0188e+00  2.6176e-03  8.0311e-08  7.3231e-02  0.0000e+00  0.0000e+00  6.6124e-12
Flow time = 5s, time step = 25
2975 more time steps

Updating solution at time level N... done.
Injecting 1648 particle parcels with mass 2e-11 at t = 5

Advancing DPM injections ....
number tracked = 38102, escaped = 0, aborted = 0, trapped = 190, evaporated = 0, incomplete = 0, incomplete_parallel = 0

  iter     time/iter
  step  flow-time  volflow_or  volflow_in volflow_cor     temp_p1    temp_max pressure_or pressure_dif pressure_cor mass_balance heat_balance      dpm_p2      dpm_or     dpm_cor
    26  5.2000e+00 -2.1069e+00  2.1019e+00 -1.0800e-01  2.9403e+02  3.6572e+02  6.0214e+00  6.0188e+00  2.6176e-03  8.0311e-08  7.3231e-02  0.0000e+00  0.0000e+00  6.8728e-12
Flow time = 5.2s, time step = 26
2974 more time steps

Updating solution at time level N... done.
Injecting 1648 particle parcels with mass 2e-11 at t = 5.2

Advancing DPM injections ....
number tracked = 39560, escaped = 2, aborted = 0, trapped = 207, evaporated = 0, incomplete = 0, incomplete_parallel = 0

  iter     time/iter
  step  flow-time  volflow_or  volflow_in volflow_cor     temp_p1    temp_max pressure_or pressure_dif pressure_cor mass_balance heat_balance      dpm_p2      dpm_or     dpm_cor
    27  5.4000e+00 -2.1069e+00  2.1019e+00 -1.0800e-01  2.9403e+02  3.6572e+02  6.0214e+00  6.0188e+00  2.6176e-03  8.0311e-08  7.3231e-02  0.0000e+00  0.0000e+00  7.1360e-12
Flow time = 5.4s, time step = 27
2973 more time steps

Updating solution at time level N... done.
Injecting 1648 particle parcels with mass 2e-11 at t = 5.4

Advancing DPM injections ....
number tracked = 40999, escaped = 3, aborted = 0, trapped = 201, evaporated = 0, incomplete = 0, incomplete_parallel = 0

  iter     time/iter
  step  flow-time  volflow_or  volflow_in volflow_cor     temp_p1    temp_max pressure_or pressure_dif pressure_cor mass_balance heat_balance      dpm_p2      dpm_or     dpm_cor
    28  5.6000e+00 -2.1069e+00  2.1019e+00 -1.0800e-01  2.9403e+02  3.6572e+02  6.0214e+00  6.0188e+00  2.6176e-03  8.0311e-08  7.3231e-02  0.0000e+00  0.0000e+00  7.3952e-12
Flow time = 5.600000000000001s, time step = 28
2972 more time steps

Updating solution at time level N... done.
Injecting 1648 particle parcels with mass 2e-11 at t = 5.6

Advancing DPM injections ....
number tracked = 42443, escaped = 6, aborted = 0, trapped = 180, evaporated = 0, incomplete = 0, incomplete_parallel = 0

  iter     time/iter
  step  flow-time  volflow_or  volflow_in volflow_cor     temp_p1    temp_max pressure_or pressure_dif pressure_cor mass_balance heat_balance      dpm_p2      dpm_or     dpm_cor
    29  5.8000e+00 -2.1069e+00  2.1019e+00 -1.0800e-01  2.9403e+02  3.6572e+02  6.0214e+00  6.0188e+00  2.6176e-03  8.0311e-08  7.3231e-02  0.0000e+00  0.0000e+00  7.6596e-12
Flow time = 5.800000000000001s, time step = 29
2971 more time steps

Updating solution at time level N... done.
Injecting 1648 particle parcels with mass 2e-11 at t = 5.8

Advancing DPM injections ....
number tracked = 43905, escaped = 7, aborted = 0, trapped = 243, evaporated = 0, incomplete = 0, incomplete_parallel = 0

  iter     time/iter
/file/read-macros controlruntime.scm
Loading "././controlruntime.scm"
/solve/execute-commands add-edit control-run-time Editing control-run-time
10 
Options: "iteration" "time-step"
"time-step"  "/file/read-macros controlruntime.scm"  Done.

> 
  step  flow-time  volflow_or  volflow_in volflow_cor     temp_p1    temp_max pressure_or pressure_dif pressure_cor mass_balance heat_balance      dpm_p2      dpm_or     dpm_cor
    30  6.0000e+00 -2.1069e+00  2.1019e+00 -1.0800e-01  2.9403e+02  3.6572e+02  6.0214e+00  6.0188e+00  2.6176e-03  8.0311e-08  7.3231e-02  0.0000e+00  0.0000e+00  7.9186e-12
Flow time = 6s, time step = 30
2970 more time steps

Updating solution at time level N... done.
Injecting 1648 particle parcels with mass 2e-11 at t = 6

Advancing DPM injections ....
number tracked = 45303, escaped = 9, aborted = 0, trapped = 220, evaporated = 0, incomplete = 0, incomplete_parallel = 0

  iter     time/iter
  step  flow-time  volflow_or  volflow_in volflow_cor     temp_p1    temp_max pressure_or pressure_dif pressure_cor mass_balance heat_balance      dpm_p2      dpm_or     dpm_cor
    31  6.2000e+00 -2.1069e+00  2.1019e+00 -1.0800e-01  2.9403e+02  3.6572e+02  6.0214e+00  6.0188e+00  2.6176e-03  8.0311e-08  7.3231e-02  0.0000e+00  0.0000e+00  8.1730e-12
Flow time = 6.2s, time step = 31
2969 more time steps

Updating solution at time level N... done.
Injecting 1648 particle parcels with mass 2e-11 at t = 6.2

Advancing DPM injections ....
number tracked = 46722, escaped = 9, aborted = 0, trapped = 202, evaporated = 0, incomplete = 0, incomplete_parallel = 0

  iter     time/iter
  step  flow-time  volflow_or  volflow_in volflow_cor     temp_p1    temp_max pressure_or pressure_dif pressure_cor mass_balance heat_balance      dpm_p2      dpm_or     dpm_cor
    32  6.4000e+00 -2.1069e+00  2.1019e+00 -1.0800e-01  2.9403e+02  3.6572e+02  6.0214e+00  6.0188e+00  2.6176e-03  8.0311e-08  7.3231e-02  0.0000e+00  0.0000e+00  8.4318e-12
Flow time = 6.4s, time step = 32
2968 more time steps

Updating solution at time level N... done.
Injecting 1648 particle parcels with mass 2e-11 at t = 6.4

Advancing DPM injections ....
number tracked = 48159, escaped = 10, aborted = 0, trapped = 205, evaporated = 0, incomplete = 0, incomplete_parallel = 0

  iter     time/iter
  step  flow-time  volflow_or  volflow_in volflow_cor     temp_p1    temp_max pressure_or pressure_dif pressure_cor mass_balance heat_balance      dpm_p2      dpm_or     dpm_cor
    33  6.6000e+00 -2.1069e+00  2.1019e+00 -1.0800e-01  2.9403e+02  3.6572e+02  6.0214e+00  6.0188e+00  2.6176e-03  8.0311e-08  7.3231e-02  0.0000e+00  0.0000e+00  8.6913e-12
Flow time = 6.600000000000001s, time step = 33
2967 more time steps

Updating solution at time level N... done.
Injecting 1648 particle parcels with mass 2e-11 at t = 6.6

Advancing DPM injections ....
number tracked = 49592, escaped = 18, aborted = 0, trapped = 222, evaporated = 0, incomplete = 0, incomplete_parallel = 0

  iter     time/iter
  step  flow-time  volflow_or  volflow_in volflow_cor     temp_p1    temp_max pressure_or pressure_dif pressure_cor mass_balance heat_balance      dpm_p2      dpm_or     dpm_cor
    34  6.8000e+00 -2.1069e+00  2.1019e+00 -1.0800e-01  2.9403e+02  3.6572e+02  6.0214e+00  6.0188e+00  2.6176e-03  8.0311e-08  7.3231e-02  0.0000e+00  0.0000e+00  8.9490e-12
Flow time = 6.800000000000001s, time step = 34
2966 more time steps

Updating solution at time level N... done.
Injecting 1648 particle parcels with mass 2e-11 at t = 6.8

Advancing DPM injections ....
number tracked = 51000, escaped = 22, aborted = 0, trapped = 212, evaporated = 0, incomplete = 0, incomplete_parallel = 0

  iter     time/iter
  step  flow-time  volflow_or  volflow_in volflow_cor     temp_p1    temp_max pressure_or pressure_dif pressure_cor mass_balance heat_balance      dpm_p2      dpm_or     dpm_cor
    35  7.0000e+00 -2.1069e+00  2.1019e+00 -1.0800e-01  2.9403e+02  3.6572e+02  6.0214e+00  6.0188e+00  2.6176e-03  8.0311e-08  7.3231e-02  0.0000e+00  0.0000e+00  9.2046e-12
Flow time = 7s, time step = 35
2965 more time steps

Updating solution at time level N... done.
Injecting 1648 particle parcels with mass 2e-11 at t = 7

Advancing DPM injections ....
number tracked = 52414, escaped = 23, aborted = 0, trapped = 214, evaporated = 0, incomplete = 0, incomplete_parallel = 0

  iter     time/iter
  step  flow-time  volflow_or  volflow_in volflow_cor     temp_p1    temp_max pressure_or pressure_dif pressure_cor mass_balance heat_balance      dpm_p2      dpm_or     dpm_cor
    36  7.2000e+00 -2.1069e+00  2.1019e+00 -1.0800e-01  2.9403e+02  3.6572e+02  6.0214e+00  6.0188e+00  2.6176e-03  8.0311e-08  7.3231e-02  0.0000e+00  0.0000e+00  9.4617e-12
Flow time = 7.2s, time step = 36
2964 more time steps

Updating solution at time level N... done.
Injecting 1648 particle parcels with mass 2e-11 at t = 7.2

Advancing DPM injections ....
number tracked = 53825, escaped = 25, aborted = 0, trapped = 209, evaporated = 0, incomplete = 0, incomplete_parallel = 0

  iter     time/iter
  step  flow-time  volflow_or  volflow_in volflow_cor     temp_p1    temp_max pressure_or pressure_dif pressure_cor mass_balance heat_balance      dpm_p2      dpm_or     dpm_cor
    37  7.4000e+00 -2.1069e+00  2.1019e+00 -1.0800e-01  2.9403e+02  3.6572e+02  6.0214e+00  6.0188e+00  2.6176e-03  8.0311e-08  7.3231e-02  0.0000e+00  0.0000e+00  9.7141e-12
Flow time = 7.4s, time step = 37
2963 more time steps

Updating solution at time level N... done.
Injecting 1648 particle parcels with mass 2e-11 at t = 7.4

Advancing DPM injections ....
number tracked = 55239, escaped = 42, aborted = 0, trapped = 223, evaporated = 0, incomplete = 0, incomplete_parallel = 0

  iter     time/iter
  step  flow-time  volflow_or  volflow_in volflow_cor     temp_p1    temp_max pressure_or pressure_dif pressure_cor mass_balance heat_balance      dpm_p2      dpm_or     dpm_cor
    38  7.6000e+00 -2.1069e+00  2.1019e+00 -1.0800e-01  2.9403e+02  3.6572e+02  6.0214e+00  6.0188e+00  2.6176e-03  8.0311e-08  7.3231e-02  0.0000e+00  0.0000e+00  9.9689e-12
Flow time = 7.600000000000001s, time step = 38
2962 more time steps

Updating solution at time level N... done.
Injecting 1648 particle parcels with mass 2e-11 at t = 7.6

Advancing DPM injections ....
number tracked = 56622, escaped = 56, aborted = 0, trapped = 227, evaporated = 0, incomplete = 0, incomplete_parallel = 0

  iter     time/iter
  step  flow-time  volflow_or  volflow_in volflow_cor     temp_p1    temp_max pressure_or pressure_dif pressure_cor mass_balance heat_balance      dpm_p2      dpm_or     dpm_cor
    39  7.8000e+00 -2.1069e+00  2.1019e+00 -1.0800e-01  2.9403e+02  3.6572e+02  6.0214e+00  6.0188e+00  2.6176e-03  8.0311e-08  7.3231e-02  0.0000e+00  0.0000e+00  1.0217e-11
Flow time = 7.800000000000001s, time step = 39
2961 more time steps

Updating solution at time level N... done.
Injecting 1648 particle parcels with mass 2e-11 at t = 7.8

Advancing DPM injections ....
number tracked = 57987, escaped = 52, aborted = 0, trapped = 221, evaporated = 0, incomplete = 0, incomplete_parallel = 0

  iter     time/iter
/file/read-macros controlruntime.scm
Loading "././controlruntime.scm"
/solve/execute-commands add-edit control-run-time Editing control-run-time
10 
Options: "iteration" "time-step"
"time-step"  "/file/read-macros controlruntime.scm"  Done.

> 
  step  flow-time  volflow_or  volflow_in volflow_cor     temp_p1    temp_max pressure_or pressure_dif pressure_cor mass_balance heat_balance      dpm_p2      dpm_or     dpm_cor
    40  8.0000e+00 -2.1069e+00  2.1019e+00 -1.0800e-01  2.9403e+02  3.6572e+02  6.0214e+00  6.0188e+00  2.6176e-03  8.0311e-08  7.3231e-02  0.0000e+00  0.0000e+00  1.0465e-11
Flow time = 8s, time step = 40
2960 more time steps

Updating solution at time level N... done.
Injecting 1648 particle parcels with mass 2e-11 at t = 8

Advancing DPM injections ....
number tracked = 59362, escaped = 54, aborted = 0, trapped = 207, evaporated = 0, incomplete = 0, incomplete_parallel = 0

  iter     time/iter
  step  flow-time  volflow_or  volflow_in volflow_cor     temp_p1    temp_max pressure_or pressure_dif pressure_cor mass_balance heat_balance      dpm_p2      dpm_or     dpm_cor
    41  8.2000e+00 -2.1069e+00  2.1019e+00 -1.0800e-01  2.9403e+02  3.6572e+02  6.0214e+00  6.0188e+00  2.6176e-03  8.0311e-08  7.3231e-02  0.0000e+00  0.0000e+00  1.0716e-11
Flow time = 8.200000000000001s, time step = 41
2959 more time steps

Updating solution at time level N... done.
Injecting 1648 particle parcels with mass 2e-11 at t = 8.2

Advancing DPM injections ....
number tracked = 60749, escaped = 62, aborted = 0, trapped = 219, evaporated = 0, incomplete = 0, incomplete_parallel = 0

  iter     time/iter
  step  flow-time  volflow_or  volflow_in volflow_cor     temp_p1    temp_max pressure_or pressure_dif pressure_cor mass_balance heat_balance      dpm_p2      dpm_or     dpm_cor
    42  8.4000e+00 -2.1069e+00  2.1019e+00 -1.0800e-01  2.9403e+02  3.6572e+02  6.0214e+00  6.0188e+00  2.6176e-03  8.0311e-08  7.3231e-02  0.0000e+00  0.0000e+00  1.0965e-11
Flow time = 8.4s, time step = 42
2958 more time steps

Updating solution at time level N... done.
Injecting 1648 particle parcels with mass 2e-11 at t = 8.4

Advancing DPM injections ....
number tracked = 62116, escaped = 61, aborted = 0, trapped = 201, evaporated = 0, incomplete = 0, incomplete_parallel = 0

  iter     time/iter
  step  flow-time  volflow_or  volflow_in volflow_cor     temp_p1    temp_max pressure_or pressure_dif pressure_cor mass_balance heat_balance      dpm_p2      dpm_or     dpm_cor
    43  8.6000e+00 -2.1069e+00  2.1019e+00 -1.0800e-01  2.9403e+02  3.6572e+02  6.0214e+00  6.0188e+00  2.6176e-03  8.0311e-08  7.3231e-02  0.0000e+00  0.0000e+00  1.1213e-11
Flow time = 8.6s, time step = 43
2957 more time steps

Updating solution at time level N... done.
Injecting 1648 particle parcels with mass 2e-11 at t = 8.6

Advancing DPM injections ....
number tracked = 63502, escaped = 58, aborted = 0, trapped = 222, evaporated = 0, incomplete = 0, incomplete_parallel = 0

  iter     time/iter
  step  flow-time  volflow_or  volflow_in volflow_cor     temp_p1    temp_max pressure_or pressure_dif pressure_cor mass_balance heat_balance      dpm_p2      dpm_or     dpm_cor
    44  8.8000e+00 -2.1069e+00  2.1019e+00 -1.0800e-01  2.9403e+02  3.6572e+02  6.0214e+00  6.0188e+00  2.6176e-03  8.0311e-08  7.3231e-02  0.0000e+00  0.0000e+00  1.1462e-11
Flow time = 8.800000000000001s, time step = 44
2956 more time steps

Updating solution at time level N... done.
Injecting 1648 particle parcels with mass 2e-11 at t = 8.8

Advancing DPM injections ....
number tracked = 64870, escaped = 66, aborted = 0, trapped = 237, evaporated = 0, incomplete = 0, incomplete_parallel = 0

  iter     time/iter
  step  flow-time  volflow_or  volflow_in volflow_cor     temp_p1    temp_max pressure_or pressure_dif pressure_cor mass_balance heat_balance      dpm_p2      dpm_or     dpm_cor
    45  9.0000e+00 -2.1069e+00  2.1019e+00 -1.0800e-01  2.9403e+02  3.6572e+02  6.0214e+00  6.0188e+00  2.6176e-03  8.0311e-08  7.3231e-02  0.0000e+00  0.0000e+00  1.1709e-11
Flow time = 9s, time step = 45
2955 more time steps

Updating solution at time level N... done.
Injecting 1648 particle parcels with mass 2e-11 at t = 9

Advancing DPM injections ....
number tracked = 66215, escaped = 93, aborted = 0, trapped = 191, evaporated = 0, incomplete = 0, incomplete_parallel = 0

  iter     time/iter
  step  flow-time  volflow_or  volflow_in volflow_cor     temp_p1    temp_max pressure_or pressure_dif pressure_cor mass_balance heat_balance      dpm_p2      dpm_or     dpm_cor
    46  9.2000e+00 -2.1069e+00  2.1019e+00 -1.0800e-01  2.9403e+02  3.6572e+02  6.0214e+00  6.0188e+00  2.6176e-03  8.0311e-08  7.3231e-02  0.0000e+00  0.0000e+00  1.1955e-11
Flow time = 9.200000000000001s, time step = 46
2954 more time steps

Updating solution at time level N... done.
Injecting 1648 particle parcels with mass 2e-11 at t = 9.2

Advancing DPM injections ....
number tracked = 67579, escaped = 92, aborted = 0, trapped = 214, evaporated = 0, incomplete = 0, incomplete_parallel = 0

  iter     time/iter
  step  flow-time  volflow_or  volflow_in volflow_cor     temp_p1    temp_max pressure_or pressure_dif pressure_cor mass_balance heat_balance      dpm_p2      dpm_or     dpm_cor
    47  9.4000e+00 -2.1069e+00  2.1019e+00 -1.0800e-01  2.9403e+02  3.6572e+02  6.0214e+00  6.0188e+00  2.6176e-03  8.0311e-08  7.3231e-02  0.0000e+00  0.0000e+00  1.2198e-11
Flow time = 9.4s, time step = 47
2953 more time steps

Updating solution at time level N... done.
Injecting 1648 particle parcels with mass 2e-11 at t = 9.4

Advancing DPM injections ....
number tracked = 68921, escaped = 93, aborted = 0, trapped = 221, evaporated = 0, incomplete = 0, incomplete_parallel = 0

  iter     time/iter
  step  flow-time  volflow_or  volflow_in volflow_cor     temp_p1    temp_max pressure_or pressure_dif pressure_cor mass_balance heat_balance      dpm_p2      dpm_or     dpm_cor
    48  9.6000e+00 -2.1069e+00  2.1019e+00 -1.0800e-01  2.9403e+02  3.6572e+02  6.0214e+00  6.0188e+00  2.6176e-03  8.0311e-08  7.3231e-02  0.0000e+00  0.0000e+00  1.2441e-11
Flow time = 9.600000000000001s, time step = 48
2952 more time steps

Updating solution at time level N... done.
Injecting 1648 particle parcels with mass 2e-11 at t = 9.6

Advancing DPM injections ....
number tracked = 70255, escaped = 97, aborted = 0, trapped = 211, evaporated = 0, incomplete = 0, incomplete_parallel = 0

  iter     time/iter
  step  flow-time  volflow_or  volflow_in volflow_cor     temp_p1    temp_max pressure_or pressure_dif pressure_cor mass_balance heat_balance      dpm_p2      dpm_or     dpm_cor
    49  9.8000e+00 -2.1069e+00  2.1019e+00 -1.0800e-01  2.9403e+02  3.6572e+02  6.0214e+00  6.0188e+00  2.6176e-03  8.0311e-08  7.3231e-02  0.0000e+00  0.0000e+00  1.2684e-11
Flow time = 9.800000000000001s, time step = 49
2951 more time steps

Updating solution at time level N... done.
Injecting 1648 particle parcels with mass 2e-11 at t = 9.8

Advancing DPM injections ....
number tracked = 71595, escaped = 94, aborted = 0, trapped = 200, evaporated = 0, incomplete = 0, incomplete_parallel = 0

  iter     time/iter
/file/read-macros controlruntime.scm
Loading "././controlruntime.scm"
/solve/execute-commands add-edit control-run-time Editing control-run-time
10 
Options: "iteration" "time-step"
"time-step"  "/file/read-macros controlruntime.scm"  Done.

> 
  step  flow-time  volflow_or  volflow_in volflow_cor     temp_p1    temp_max pressure_or pressure_dif pressure_cor mass_balance heat_balance      dpm_p2      dpm_or     dpm_cor
    50  1.0000e+01 -2.1069e+00  2.1019e+00 -1.0800e-01  2.9403e+02  3.6572e+02  6.0214e+00  6.0188e+00  2.6176e-03  8.0311e-08  7.3231e-02  0.0000e+00  0.0000e+00  1.2929e-11
Flow time = 10s, time step = 50
2950 more time steps

Updating solution at time level N... done.
Injecting 1648 particle parcels with mass 2e-11 at t = 10

Advancing DPM injections ....
number tracked = 72949, escaped = 111, aborted = 0, trapped = 186, evaporated = 0, incomplete = 0, incomplete_parallel = 0

  iter     time/iter
  step  flow-time  volflow_or  volflow_in volflow_cor     temp_p1    temp_max pressure_or pressure_dif pressure_cor mass_balance heat_balance      dpm_p2      dpm_or     dpm_cor
    51  1.0200e+01 -2.1069e+00  2.1019e+00 -1.0800e-01  2.9403e+02  3.6572e+02  6.0214e+00  6.0188e+00  2.6176e-03  8.0311e-08  7.3231e-02  0.0000e+00  0.0000e+00  1.3175e-11
Flow time = 10.2s, time step = 51
2949 more time steps

Updating solution at time level N... done.
Injecting 1648 particle parcels with mass 2e-11 at t = 10.2

Advancing DPM injections ....
number tracked = 74300, escaped = 87, aborted = 0, trapped = 219, evaporated = 0, incomplete = 0, incomplete_parallel = 0

  iter     time/iter
  step  flow-time  volflow_or  volflow_in volflow_cor     temp_p1    temp_max pressure_or pressure_dif pressure_cor mass_balance heat_balance      dpm_p2      dpm_or     dpm_cor
    52  1.0400e+01 -2.1069e+00  2.1019e+00 -1.0800e-01  2.9403e+02  3.6572e+02  6.0214e+00  6.0188e+00  2.6176e-03  8.0311e-08  7.3231e-02  0.0000e+00  0.0000e+00  1.3418e-11
Flow time = 10.4s, time step = 52
2948 more time steps

Updating solution at time level N... done.
Injecting 1648 particle parcels with mass 2e-11 at t = 10.4

Advancing DPM injections ....
number tracked = 75642, escaped = 82, aborted = 0, trapped = 210, evaporated = 0, incomplete = 0, incomplete_parallel = 0

  iter     time/iter
  step  flow-time  volflow_or  volflow_in volflow_cor     temp_p1    temp_max pressure_or pressure_dif pressure_cor mass_balance heat_balance      dpm_p2      dpm_or     dpm_cor
    53  1.0600e+01 -2.1069e+00  2.1019e+00 -1.0800e-01  2.9403e+02  3.6572e+02  6.0214e+00  6.0188e+00  2.6176e-03  8.0311e-08  7.3231e-02  0.0000e+00  0.0000e+00  1.3662e-11
Flow time = 10.6s, time step = 53
2947 more time steps

Updating solution at time level N... done.
Injecting 1648 particle parcels with mass 2e-11 at t = 10.6

Advancing DPM injections ....
number tracked = 76998, escaped = 114, aborted = 0, trapped = 223, evaporated = 0, incomplete = 0, incomplete_parallel = 0

  iter     time/iter
  step  flow-time  volflow_or  volflow_in volflow_cor     temp_p1    temp_max pressure_or pressure_dif pressure_cor mass_balance heat_balance      dpm_p2      dpm_or     dpm_cor
    54  1.0800e+01 -2.1069e+00  2.1019e+00 -1.0800e-01  2.9403e+02  3.6572e+02  6.0214e+00  6.0188e+00  2.6176e-03  8.0311e-08  7.3231e-02  0.0000e+00  0.0000e+00  1.3905e-11
Flow time = 10.8s, time step = 54
2946 more time steps

Updating solution at time level N... done.
Injecting 1648 particle parcels with mass 2e-11 at t = 10.8

Advancing DPM injections ....
number tracked = 78309, escaped = 125, aborted = 0, trapped = 224, evaporated = 0, incomplete = 0, incomplete_parallel = 0

  iter     time/iter
  step  flow-time  volflow_or  volflow_in volflow_cor     temp_p1    temp_max pressure_or pressure_dif pressure_cor mass_balance heat_balance      dpm_p2      dpm_or     dpm_cor
    55  1.1000e+01 -2.1069e+00  2.1019e+00 -1.0800e-01  2.9403e+02  3.6572e+02  6.0214e+00  6.0188e+00  2.6176e-03  8.0311e-08  7.3231e-02  0.0000e+00  0.0000e+00  1.4140e-11
Flow time = 11s, time step = 55
2945 more time steps

Updating solution at time level N... done.
Injecting 1648 particle parcels with mass 2e-11 at t = 11

Advancing DPM injections ....
number tracked = 79608, escaped = 113, aborted = 0, trapped = 228, evaporated = 0, incomplete = 0, incomplete_parallel = 0

  iter     time/iter
  step  flow-time  volflow_or  volflow_in volflow_cor     temp_p1    temp_max pressure_or pressure_dif pressure_cor mass_balance heat_balance      dpm_p2      dpm_or     dpm_cor
    56  1.1200e+01 -2.1069e+00  2.1019e+00 -1.0800e-01  2.9403e+02  3.6572e+02  6.0214e+00  6.0188e+00  2.6176e-03  8.0311e-08  7.3231e-02  0.0000e+00  0.0000e+00  1.4373e-11
Flow time = 11.2s, time step = 56
2944 more time steps

Updating solution at time level N... done.
Injecting 1648 particle parcels with mass 2e-11 at t = 11.2

Advancing DPM injections ....
number tracked = 80915, escaped = 110, aborted = 0, trapped = 201, evaporated = 0, incomplete = 0, incomplete_parallel = 0

  iter     time/iter
  step  flow-time  volflow_or  volflow_in volflow_cor     temp_p1    temp_max pressure_or pressure_dif pressure_cor mass_balance heat_balance      dpm_p2      dpm_or     dpm_cor
    57  1.1400e+01 -2.1069e+00  2.1019e+00 -1.0800e-01  2.9403e+02  3.6572e+02  6.0214e+00  6.0188e+00  2.6176e-03  8.0311e-08  7.3231e-02  0.0000e+00  0.0000e+00  1.4612e-11
Flow time = 11.4s, time step = 57
2943 more time steps

Updating solution at time level N... done.
Injecting 1648 particle parcels with mass 2e-11 at t = 11.4

Advancing DPM injections ....
number tracked = 82252, escaped = 127, aborted = 0, trapped = 229, evaporated = 0, incomplete = 0, incomplete_parallel = 0

  iter     time/iter
  step  flow-time  volflow_or  volflow_in volflow_cor     temp_p1    temp_max pressure_or pressure_dif pressure_cor mass_balance heat_balance      dpm_p2      dpm_or     dpm_cor
    58  1.1600e+01 -2.1069e+00  2.1019e+00 -1.0800e-01  2.9403e+02  3.6572e+02  6.0214e+00  6.0188e+00  2.6176e-03  8.0311e-08  7.3231e-02  0.0000e+00  0.0000e+00  1.4852e-11
Flow time = 11.6s, time step = 58
2942 more time steps

Updating solution at time level N... done.
Injecting 1648 particle parcels with mass 2e-11 at t = 11.6

Advancing DPM injections ....
number tracked = 83544, escaped = 119, aborted = 0, trapped = 226, evaporated = 0, incomplete = 0, incomplete_parallel = 0

  iter     time/iter
  step  flow-time  volflow_or  volflow_in volflow_cor     temp_p1    temp_max pressure_or pressure_dif pressure_cor mass_balance heat_balance      dpm_p2      dpm_or     dpm_cor
    59  1.1800e+01 -2.1069e+00  2.1019e+00 -1.0800e-01  2.9403e+02  3.6572e+02  6.0214e+00  6.0188e+00  2.6176e-03  8.0311e-08  7.3231e-02  0.0000e+00  0.0000e+00  1.5085e-11
Flow time = 11.8s, time step = 59
2941 more time steps

Updating solution at time level N... done.
Injecting 1648 particle parcels with mass 2e-11 at t = 11.8

Advancing DPM injections ....
number tracked = 84847, escaped = 114, aborted = 0, trapped = 225, evaporated = 0, incomplete = 0, incomplete_parallel = 0

  iter     time/iter
/file/read-macros controlruntime.scm
Loading "././controlruntime.scm"
/solve/execute-commands add-edit control-run-time Editing control-run-time
10 
Options: "iteration" "time-step"
"time-step"  "/file/read-macros controlruntime.scm"  Done.

> 
  step  flow-time  volflow_or  volflow_in volflow_cor     temp_p1    temp_max pressure_or pressure_dif pressure_cor mass_balance heat_balance      dpm_p2      dpm_or     dpm_cor
    60  1.2000e+01 -2.1069e+00  2.1019e+00 -1.0800e-01  2.9403e+02  3.6572e+02  6.0214e+00  6.0188e+00  2.6176e-03  8.0311e-08  7.3231e-02  0.0000e+00  0.0000e+00  1.5323e-11
Flow time = 12s, time step = 60
2940 more time steps

Updating solution at time level N... done.
Injecting 1648 particle parcels with mass 2e-11 at t = 12

Advancing DPM injections ....
number tracked = 86156, escaped = 131, aborted = 0, trapped = 246, evaporated = 0, incomplete = 0, incomplete_parallel = 0

  iter     time/iter
  step  flow-time  volflow_or  volflow_in volflow_cor     temp_p1    temp_max pressure_or pressure_dif pressure_cor mass_balance heat_balance      dpm_p2      dpm_or     dpm_cor
    61  1.2200e+01 -2.1069e+00  2.1019e+00 -1.0800e-01  2.9403e+02  3.6572e+02  6.0214e+00  6.0188e+00  2.6176e-03  8.0311e-08  7.3231e-02  0.0000e+00  0.0000e+00  1.5555e-11
Flow time = 12.2s, time step = 61
2939 more time steps

Updating solution at time level N... done.
Injecting 1648 particle parcels with mass 2e-11 at t = 12.2

Advancing DPM injections ....
number tracked = 87427, escaped = 124, aborted = 0, trapped = 206, evaporated = 0, incomplete = 0, incomplete_parallel = 0

  iter     time/iter
  step  flow-time  volflow_or  volflow_in volflow_cor     temp_p1    temp_max pressure_or pressure_dif pressure_cor mass_balance heat_balance      dpm_p2      dpm_or     dpm_cor
    62  1.2400e+01 -2.1069e+00  2.1019e+00 -1.0800e-01  2.9403e+02  3.6572e+02  6.0214e+00  6.0188e+00  2.6176e-03  8.0311e-08  7.3231e-02  0.0000e+00  0.0000e+00  1.5789e-11
Flow time = 12.4s, time step = 62
2938 more time steps

Updating solution at time level N... done.
Injecting 1648 particle parcels with mass 2e-11 at t = 12.4

Advancing DPM injections ....
number tracked = 88745, escaped = 153, aborted = 0, trapped = 246, evaporated = 0, incomplete = 0, incomplete_parallel = 0

  iter     time/iter
  step  flow-time  volflow_or  volflow_in volflow_cor     temp_p1    temp_max pressure_or pressure_dif pressure_cor mass_balance heat_balance      dpm_p2      dpm_or     dpm_cor
    63  1.2600e+01 -2.1069e+00  2.1019e+00 -1.0800e-01  2.9403e+02  3.6572e+02  6.0214e+00  6.0188e+00  2.6176e-03  8.0311e-08  7.3231e-02  0.0000e+00  0.0000e+00  1.6022e-11
Flow time = 12.6s, time step = 63
2937 more time steps

Updating solution at time level N... done.
Injecting 1648 particle parcels with mass 2e-11 at t = 12.6

Advancing DPM injections ....
number tracked = 89994, escaped = 128, aborted = 0, trapped = 247, evaporated = 0, incomplete = 0, incomplete_parallel = 0

  iter     time/iter
  step  flow-time  volflow_or  volflow_in volflow_cor     temp_p1    temp_max pressure_or pressure_dif pressure_cor mass_balance heat_balance      dpm_p2      dpm_or     dpm_cor
    64  1.2800e+01 -2.1069e+00  2.1019e+00 -1.0800e-01  2.9403e+02  3.6572e+02  6.0214e+00  6.0188e+00  2.6176e-03  8.0311e-08  7.3231e-02  0.0000e+00  0.0000e+00  1.6249e-11
Flow time = 12.8s, time step = 64
2936 more time steps

Updating solution at time level N... done.
Injecting 1648 particle parcels with mass 2e-11 at t = 12.8

Advancing DPM injections ....
number tracked = 91267, escaped = 129, aborted = 0, trapped = 238, evaporated = 0, incomplete = 0, incomplete_parallel = 0

  iter     time/iter
  step  flow-time  volflow_or  volflow_in volflow_cor     temp_p1    temp_max pressure_or pressure_dif pressure_cor mass_balance heat_balance      dpm_p2      dpm_or     dpm_cor
    65  1.3000e+01 -2.1069e+00  2.1019e+00 -1.0800e-01  2.9403e+02  3.6572e+02  6.0214e+00  6.0188e+00  2.6176e-03  8.0311e-08  7.3231e-02  0.0000e+00  0.0000e+00  1.6480e-11
Flow time = 13s, time step = 65
2935 more time steps

Updating solution at time level N... done.
Injecting 1648 particle parcels with mass 2e-11 at t = 13

Advancing DPM injections ....
number tracked = 92548, escaped = 136, aborted = 0, trapped = 210, evaporated = 0, incomplete = 0, incomplete_parallel = 0

  iter     time/iter
  step  flow-time  volflow_or  volflow_in volflow_cor     temp_p1    temp_max pressure_or pressure_dif pressure_cor mass_balance heat_balance      dpm_p2      dpm_or     dpm_cor
    66  1.3200e+01 -2.1069e+00  2.1019e+00 -1.0800e-01  2.9403e+02  3.6572e+02  6.0214e+00  6.0188e+00  2.6176e-03  8.0311e-08  7.3231e-02  0.0000e+00  0.0000e+00  1.6714e-11
Flow time = 13.2s, time step = 66
2934 more time steps

Updating solution at time level N... done.
Injecting 1648 particle parcels with mass 2e-11 at t = 13.2

Advancing DPM injections ....
number tracked = 93850, escaped = 149, aborted = 0, trapped = 254, evaporated = 0, incomplete = 0, incomplete_parallel = 0

  iter     time/iter
  step  flow-time  volflow_or  volflow_in volflow_cor     temp_p1    temp_max pressure_or pressure_dif pressure_cor mass_balance heat_balance      dpm_p2      dpm_or     dpm_cor
    67  1.3400e+01 -2.1069e+00  2.1019e+00 -1.0800e-01  2.9403e+02  3.6572e+02  6.0214e+00  6.0188e+00  2.6176e-03  8.0311e-08  7.3231e-02  0.0000e+00  0.0000e+00  1.6943e-11
Flow time = 13.4s, time step = 67
2933 more time steps

Updating solution at time level N... done.
Injecting 1648 particle parcels with mass 2e-11 at t = 13.4

Advancing DPM injections ....
number tracked = 95095, escaped = 131, aborted = 0, trapped = 189, evaporated = 0, incomplete = 0, incomplete_parallel = 0

  iter     time/iter
  step  flow-time  volflow_or  volflow_in volflow_cor     temp_p1    temp_max pressure_or pressure_dif pressure_cor mass_balance heat_balance      dpm_p2      dpm_or     dpm_cor
    68  1.3600e+01 -2.1069e+00  2.1019e+00 -1.0800e-01  2.9403e+02  3.6572e+02  6.0214e+00  6.0188e+00  2.6176e-03  8.0311e-08  7.3231e-02  0.0000e+00  0.0000e+00  1.7178e-11
Flow time = 13.6s, time step = 68
2932 more time steps

Updating solution at time level N... done.
Injecting 1648 particle parcels with mass 2e-11 at t = 13.6

Advancing DPM injections ....
number tracked = 96423, escaped = 163, aborted = 0, trapped = 213, evaporated = 0, incomplete = 0, incomplete_parallel = 0

  iter     time/iter
  step  flow-time  volflow_or  volflow_in volflow_cor     temp_p1    temp_max pressure_or pressure_dif pressure_cor mass_balance heat_balance      dpm_p2      dpm_or     dpm_cor
    69  1.3800e+01 -2.1069e+00  2.1019e+00 -1.0800e-01  2.9403e+02  3.6572e+02  6.0214e+00  6.0188e+00  2.6176e-03  8.0311e-08  7.3231e-02  0.0000e+00  0.0000e+00  1.7412e-11
Flow time = 13.8s, time step = 69
2931 more time steps

Updating solution at time level N... done.
Injecting 1648 particle parcels with mass 2e-11 at t = 13.8

Advancing DPM injections ....
number tracked = 97695, escaped = 154, aborted = 0, trapped = 230, evaporated = 0, incomplete = 0, incomplete_parallel = 0

  iter     time/iter
/file/read-macros controlruntime.scm
Loading "././controlruntime.scm"
/solve/execute-commands add-edit control-run-time Editing control-run-time
10 
Options: "iteration" "time-step"
"time-step"  "/file/read-macros controlruntime.scm"  Done.

> 
  step  flow-time  volflow_or  volflow_in volflow_cor     temp_p1    temp_max pressure_or pressure_dif pressure_cor mass_balance heat_balance      dpm_p2      dpm_or     dpm_cor
    70  1.4000e+01 -2.1069e+00  2.1019e+00 -1.0800e-01  2.9403e+02  3.6572e+02  6.0214e+00  6.0188e+00  2.6176e-03  8.0311e-08  7.3231e-02  0.0000e+00  0.0000e+00  1.7640e-11
Flow time = 14s, time step = 70
2930 more time steps

Updating solution at time level N... done.
Injecting 1648 particle parcels with mass 2e-11 at t = 14

Advancing DPM injections ....
number tracked = 98959, escaped = 154, aborted = 0, trapped = 247, evaporated = 0, incomplete = 0, incomplete_parallel = 0

  iter     time/iter
  step  flow-time  volflow_or  volflow_in volflow_cor     temp_p1    temp_max pressure_or pressure_dif pressure_cor mass_balance heat_balance      dpm_p2      dpm_or     dpm_cor
    71  1.4200e+01 -2.1069e+00  2.1019e+00 -1.0800e-01  2.9403e+02  3.6572e+02  6.0214e+00  6.0188e+00  2.6176e-03  8.0311e-08  7.3231e-02  0.0000e+00  0.0000e+00  1.7866e-11
Flow time = 14.2s, time step = 71
2929 more time steps

Updating solution at time level N... done.
Injecting 1648 particle parcels with mass 2e-11 at t = 14.2

Advancing DPM injections ....
number tracked = 100206, escaped = 168, aborted = 0, trapped = 243, evaporated = 0, incomplete = 0, incomplete_parallel = 0

  iter     time/iter
  step  flow-time  volflow_or  volflow_in volflow_cor     temp_p1    temp_max pressure_or pressure_dif pressure_cor mass_balance heat_balance      dpm_p2      dpm_or     dpm_cor
    72  1.4400e+01 -2.1069e+00  2.1019e+00 -1.0800e-01  2.9403e+02  3.6572e+02  6.0214e+00  6.0188e+00  2.6176e-03  8.0311e-08  7.3231e-02  0.0000e+00  0.0000e+00  1.8095e-11
Flow time = 14.4s, time step = 72
2928 more time steps

Updating solution at time level N... done.
Injecting 1648 particle parcels with mass 2e-11 at t = 14.4

Advancing DPM injections ....
number tracked = 101443, escaped = 163, aborted = 0, trapped = 227, evaporated = 0, incomplete = 0, incomplete_parallel = 0

  iter     time/iter
  step  flow-time  volflow_or  volflow_in volflow_cor     temp_p1    temp_max pressure_or pressure_dif pressure_cor mass_balance heat_balance      dpm_p2      dpm_or     dpm_cor
    73  1.4600e+01 -2.1069e+00  2.1019e+00 -1.0800e-01  2.9403e+02  3.6572e+02  6.0214e+00  6.0188e+00  2.6176e-03  8.0311e-08  7.3231e-02  0.0000e+00  0.0000e+00  1.8322e-11
Flow time = 14.6s, time step = 73
2927 more time steps

Updating solution at time level N... done.
Injecting 1648 particle parcels with mass 2e-11 at t = 14.6

Advancing DPM injections ....
number tracked = 102701, escaped = 142, aborted = 0, trapped = 225, evaporated = 0, incomplete = 0, incomplete_parallel = 0

  iter     time/iter
  step  flow-time  volflow_or  volflow_in volflow_cor     temp_p1    temp_max pressure_or pressure_dif pressure_cor mass_balance heat_balance      dpm_p2      dpm_or     dpm_cor
    74  1.4800e+01 -2.1069e+00  2.1019e+00 -1.0800e-01  2.9403e+02  3.6572e+02  6.0214e+00  6.0188e+00  2.6176e-03  8.0311e-08  7.3231e-02  0.0000e+00  0.0000e+00  1.8550e-11
Flow time = 14.8s, time step = 74
2926 more time steps

Updating solution at time level N... done.
Injecting 1648 particle parcels with mass 2e-11 at t = 14.8

Advancing DPM injections ....
number tracked = 103982, escaped = 167, aborted = 0, trapped = 257, evaporated = 0, incomplete = 0, incomplete_parallel = 0

  iter     time/iter
  step  flow-time  volflow_or  volflow_in volflow_cor     temp_p1    temp_max pressure_or pressure_dif pressure_cor mass_balance heat_balance      dpm_p2      dpm_or     dpm_cor
    75  1.5000e+01 -2.1069e+00  2.1019e+00 -1.0800e-01  2.9403e+02  3.6572e+02  6.0214e+00  6.0188e+00  2.6176e-03  8.0311e-08  7.3231e-02  0.0000e+00  0.0000e+00  1.8776e-11
Flow time = 15s, time step = 75
2925 more time steps

Updating solution at time level N... done.
Injecting 1648 particle parcels with mass 2e-11 at t = 15

Advancing DPM injections ....
number tracked = 105206, escaped = 140, aborted = 0, trapped = 260, evaporated = 0, incomplete = 0, incomplete_parallel = 0

  iter     time/iter
  step  flow-time  volflow_or  volflow_in volflow_cor     temp_p1    temp_max pressure_or pressure_dif pressure_cor mass_balance heat_balance      dpm_p2      dpm_or     dpm_cor
    76  1.5200e+01 -2.1069e+00  2.1019e+00 -1.0800e-01  2.9403e+02  3.6572e+02  6.0214e+00  6.0188e+00  2.6176e-03  8.0311e-08  7.3231e-02  0.0000e+00  0.0000e+00  1.8999e-11
Flow time = 15.2s, time step = 76
2924 more time steps

Updating solution at time level N... done.
Injecting 1648 particle parcels with mass 2e-11 at t = 15.2

Advancing DPM injections ....
number tracked = 106454, escaped = 142, aborted = 0, trapped = 235, evaporated = 0, incomplete = 0, incomplete_parallel = 0

  iter     time/iter
  step  flow-time  volflow_or  volflow_in volflow_cor     temp_p1    temp_max pressure_or pressure_dif pressure_cor mass_balance heat_balance      dpm_p2      dpm_or     dpm_cor
    77  1.5400e+01 -2.1069e+00  2.1019e+00 -1.0800e-01  2.9403e+02  3.6572e+02  6.0214e+00  6.0188e+00  2.6176e-03  8.0311e-08  7.3231e-02  0.0000e+00  0.0000e+00  1.9227e-11
Flow time = 15.4s, time step = 77
2923 more time steps

Updating solution at time level N... done.
Injecting 1648 particle parcels with mass 2e-11 at t = 15.4

Advancing DPM injections ....
number tracked = 107725, escaped = 141, aborted = 0, trapped = 228, evaporated = 0, incomplete = 0, incomplete_parallel = 0

  iter     time/iter
  step  flow-time  volflow_or  volflow_in volflow_cor     temp_p1    temp_max pressure_or pressure_dif pressure_cor mass_balance heat_balance      dpm_p2      dpm_or     dpm_cor
    78  1.5600e+01 -2.1069e+00  2.1019e+00 -1.0800e-01  2.9403e+02  3.6572e+02  6.0214e+00  6.0188e+00  2.6176e-03  8.0311e-08  7.3231e-02  0.0000e+00  0.0000e+00  1.9457e-11
Flow time = 15.6s, time step = 78
2922 more time steps

Updating solution at time level N... done.
Injecting 1648 particle parcels with mass 2e-11 at t = 15.6

Advancing DPM injections ....
number tracked = 109004, escaped = 151, aborted = 0, trapped = 239, evaporated = 0, incomplete = 0, incomplete_parallel = 0

  iter     time/iter
  step  flow-time  volflow_or  volflow_in volflow_cor     temp_p1    temp_max pressure_or pressure_dif pressure_cor mass_balance heat_balance      dpm_p2      dpm_or     dpm_cor
    79  1.5800e+01 -2.1069e+00  2.1019e+00 -1.0800e-01  2.9403e+02  3.6572e+02  6.0214e+00  6.0188e+00  2.6176e-03  8.0311e-08  7.3231e-02  0.0000e+00  0.0000e+00  1.9685e-11
Flow time = 15.8s, time step = 79
2921 more time steps

Updating solution at time level N... done.
Injecting 1648 particle parcels with mass 2e-11 at t = 15.8

Advancing DPM injections ....
number tracked = 110262, escaped = 181, aborted = 0, trapped = 232, evaporated = 0, incomplete = 0, incomplete_parallel = 0

  iter     time/iter
/file/read-macros controlruntime.scm
Loading "././controlruntime.scm"
/solve/execute-commands add-edit control-run-time Editing control-run-time
10 
Options: "iteration" "time-step"
"time-step"  "/file/read-macros controlruntime.scm"  Done.

> 
  step  flow-time  volflow_or  volflow_in volflow_cor     temp_p1    temp_max pressure_or pressure_dif pressure_cor mass_balance heat_balance      dpm_p2      dpm_or     dpm_cor
    80  1.6000e+01 -2.1069e+00  2.1019e+00 -1.0800e-01  2.9403e+02  3.6572e+02  6.0214e+00  6.0188e+00  2.6176e-03  8.0311e-08  7.3231e-02  0.0000e+00  0.0000e+00  1.9912e-11
Flow time = 16s, time step = 80
2920 more time steps

Updating solution at time level N... done.
Injecting 1648 particle parcels with mass 2e-11 at t = 16

Advancing DPM injections ....
number tracked = 111497, escaped = 155, aborted = 0, trapped = 239, evaporated = 0, incomplete = 0, incomplete_parallel = 0

  iter     time/iter
  step  flow-time  volflow_or  volflow_in volflow_cor     temp_p1    temp_max pressure_or pressure_dif pressure_cor mass_balance heat_balance      dpm_p2      dpm_or     dpm_cor
    81  1.6200e+01 -2.1069e+00  2.1019e+00 -1.0800e-01  2.9403e+02  3.6572e+02  6.0214e+00  6.0188e+00  2.6176e-03  8.0311e-08  7.3231e-02  0.0000e+00  0.0000e+00  2.0139e-11
Flow time = 16.2s, time step = 81
2919 more time steps

Updating solution at time level N... done.
Injecting 1648 particle parcels with mass 2e-11 at t = 16.2

Advancing DPM injections ....
number tracked = 112751, escaped = 162, aborted = 0, trapped = 252, evaporated = 0, incomplete = 0, incomplete_parallel = 0

  iter     time/iter
  step  flow-time  volflow_or  volflow_in volflow_cor     temp_p1    temp_max pressure_or pressure_dif pressure_cor mass_balance heat_balance      dpm_p2      dpm_or     dpm_cor
    82  1.6400e+01 -2.1069e+00  2.1019e+00 -1.0800e-01  2.9403e+02  3.6572e+02  6.0214e+00  6.0188e+00  2.6176e-03  8.0311e-08  7.3231e-02  0.0000e+00  0.0000e+00  2.0360e-11
Flow time = 16.4s, time step = 82
2918 more time steps

Updating solution at time level N... done.
Injecting 1648 particle parcels with mass 2e-11 at t = 16.4

Advancing DPM injections ....
number tracked = 113985, escaped = 149, aborted = 0, trapped = 263, evaporated = 0, incomplete = 0, incomplete_parallel = 0

  iter     time/iter
[...]
Flow time = 594.6s, time step = 2973
27 more time steps

Updating solution at time level N... done.
Injecting 1648 particle parcels with mass 2e-11 at t = 594.6

Advancing DPM injections ....
number tracked = 1019420, escaped = 452, aborted = 0, trapped = 1177, evaporated = 0, incomplete = 0, incomplete_parallel = 0

  iter     time/iter
  step  flow-time  volflow_or  volflow_in volflow_cor     temp_p1    temp_max pressure_or pressure_dif pressure_cor mass_balance heat_balance      dpm_p2      dpm_or     dpm_cor
  2974  5.9480e+02 -2.1069e+00  2.1019e+00 -1.0800e-01  2.9403e+02  3.6572e+02  6.0214e+00  6.0188e+00  2.6176e-03  8.0311e-08  7.3231e-02  0.0000e+00  0.0000e+00  1.8422e-10
Flow time = 594.8000000000001s, time step = 2974
26 more time steps

Updating solution at time level N... done.
Injecting 1648 particle parcels with mass 2e-11 at t = 594.8

Advancing DPM injections ....
number tracked = 1019439, escaped = 438, aborted = 0, trapped = 1174, evaporated = 0, incomplete = 0, incomplete_parallel = 0

  iter     time/iter
  step  flow-time  volflow_or  volflow_in volflow_cor     temp_p1    temp_max pressure_or pressure_dif pressure_cor mass_balance heat_balance      dpm_p2      dpm_or     dpm_cor
  2975  5.9500e+02 -2.1069e+00  2.1019e+00 -1.0800e-01  2.9403e+02  3.6572e+02  6.0214e+00  6.0188e+00  2.6176e-03  8.0311e-08  7.3231e-02  0.0000e+00  0.0000e+00  1.8423e-10
Flow time = 595s, time step = 2975
25 more time steps

Updating solution at time level N... done.
Injecting 1648 particle parcels with mass 2e-11 at t = 595

Advancing DPM injections ....
number tracked = 1019475, escaped = 426, aborted = 0, trapped = 1209, evaporated = 0, incomplete = 0, incomplete_parallel = 0

  iter     time/iter
  step  flow-time  volflow_or  volflow_in volflow_cor     temp_p1    temp_max pressure_or pressure_dif pressure_cor mass_balance heat_balance      dpm_p2      dpm_or     dpm_cor
  2976  5.9520e+02 -2.1069e+00  2.1019e+00 -1.0800e-01  2.9403e+02  3.6572e+02  6.0214e+00  6.0188e+00  2.6176e-03  8.0311e-08  7.3231e-02  0.0000e+00  0.0000e+00  1.8423e-10
Flow time = 595.2s, time step = 2976
24 more time steps

Updating solution at time level N... done.
Injecting 1648 particle parcels with mass 2e-11 at t = 595.2

Advancing DPM injections ....
number tracked = 1019488, escaped = 450, aborted = 0, trapped = 1165, evaporated = 0, incomplete = 0, incomplete_parallel = 0

  iter     time/iter
  step  flow-time  volflow_or  volflow_in volflow_cor     temp_p1    temp_max pressure_or pressure_dif pressure_cor mass_balance heat_balance      dpm_p2      dpm_or     dpm_cor
  2977  5.9540e+02 -2.1069e+00  2.1019e+00 -1.0800e-01  2.9403e+02  3.6572e+02  6.0214e+00  6.0188e+00  2.6176e-03  8.0311e-08  7.3231e-02  0.0000e+00  0.0000e+00  1.8423e-10
Flow time = 595.4s, time step = 2977
23 more time steps

Updating solution at time level N... done.
Injecting 1648 particle parcels with mass 2e-11 at t = 595.4

Advancing DPM injections ....
number tracked = 1019521, escaped = 451, aborted = 0, trapped = 1165, evaporated = 0, incomplete = 0, incomplete_parallel = 0

  iter     time/iter
  step  flow-time  volflow_or  volflow_in volflow_cor     temp_p1    temp_max pressure_or pressure_dif pressure_cor mass_balance heat_balance      dpm_p2      dpm_or     dpm_cor
  2978  5.9560e+02 -2.1069e+00  2.1019e+00 -1.0800e-01  2.9403e+02  3.6572e+02  6.0214e+00  6.0188e+00  2.6176e-03  8.0311e-08  7.3231e-02  0.0000e+00  0.0000e+00  1.8424e-10
Flow time = 595.6s, time step = 2978
22 more time steps

Updating solution at time level N... done.
Injecting 1648 particle parcels with mass 2e-11 at t = 595.6

Advancing DPM injections ....
number tracked = 1019553, escaped = 417, aborted = 0, trapped = 1166, evaporated = 0, incomplete = 0, incomplete_parallel = 0

  iter     time/iter
  step  flow-time  volflow_or  volflow_in volflow_cor     temp_p1    temp_max pressure_or pressure_dif pressure_cor mass_balance heat_balance      dpm_p2      dpm_or     dpm_cor
  2979  5.9580e+02 -2.1069e+00  2.1019e+00 -1.0800e-01  2.9403e+02  3.6572e+02  6.0214e+00  6.0188e+00  2.6176e-03  8.0311e-08  7.3231e-02  0.0000e+00  0.0000e+00  1.8425e-10
Flow time = 595.8000000000001s, time step = 2979
21 more time steps

Updating solution at time level N... done.
Injecting 1648 particle parcels with mass 2e-11 at t = 595.8

Advancing DPM injections ....
number tracked = 1019618, escaped = 428, aborted = 0, trapped = 1208, evaporated = 0, incomplete = 0, incomplete_parallel = 0

  iter     time/iter
/file/read-macros controlruntime.scm
Loading "././controlruntime.scm"
/solve/execute-commands add-edit control-run-time Editing control-run-time
10 
Options: "iteration" "time-step"
"time-step"  "/file/read-macros controlruntime.scm"  Done.

> 
  step  flow-time  volflow_or  volflow_in volflow_cor     temp_p1    temp_max pressure_or pressure_dif pressure_cor mass_balance heat_balance      dpm_p2      dpm_or     dpm_cor
  2980  5.9600e+02 -2.1069e+00  2.1019e+00 -1.0800e-01  2.9403e+02  3.6572e+02  6.0214e+00  6.0188e+00  2.6176e-03  8.0311e-08  7.3231e-02  0.0000e+00  0.0000e+00  1.8425e-10
Flow time = 596s, time step = 2980
20 more time steps

Updating solution at time level N... done.
Injecting 1648 particle parcels with mass 2e-11 at t = 596

Advancing DPM injections ....
number tracked = 1019630, escaped = 425, aborted = 0, trapped = 1172, evaporated = 0, incomplete = 0, incomplete_parallel = 0

  iter     time/iter
  step  flow-time  volflow_or  volflow_in volflow_cor     temp_p1    temp_max pressure_or pressure_dif pressure_cor mass_balance heat_balance      dpm_p2      dpm_or     dpm_cor
  2981  5.9620e+02 -2.1069e+00  2.1019e+00 -1.0800e-01  2.9403e+02  3.6572e+02  6.0214e+00  6.0188e+00  2.6176e-03  8.0311e-08  7.3231e-02  0.0000e+00  0.0000e+00  1.8426e-10
Flow time = 596.2s, time step = 2981
19 more time steps

Updating solution at time level N... done.
Injecting 1648 particle parcels with mass 2e-11 at t = 596.2

Advancing DPM injections ....
number tracked = 1019681, escaped = 422, aborted = 0, trapped = 1163, evaporated = 0, incomplete = 0, incomplete_parallel = 0

  iter     time/iter
  step  flow-time  volflow_or  volflow_in volflow_cor     temp_p1    temp_max pressure_or pressure_dif pressure_cor mass_balance heat_balance      dpm_p2      dpm_or     dpm_cor
  2982  5.9640e+02 -2.1069e+00  2.1019e+00 -1.0800e-01  2.9403e+02  3.6572e+02  6.0214e+00  6.0188e+00  2.6176e-03  8.0311e-08  7.3231e-02  0.0000e+00  0.0000e+00  1.8427e-10
Flow time = 596.4s, time step = 2982
18 more time steps

Updating solution at time level N... done.
Injecting 1648 particle parcels with mass 2e-11 at t = 596.4

Advancing DPM injections ....
number tracked = 1019744, escaped = 417, aborted = 0, trapped = 1210, evaporated = 0, incomplete = 0, incomplete_parallel = 0

  iter     time/iter
  step  flow-time  volflow_or  volflow_in volflow_cor     temp_p1    temp_max pressure_or pressure_dif pressure_cor mass_balance heat_balance      dpm_p2      dpm_or     dpm_cor
  2983  5.9660e+02 -2.1069e+00  2.1019e+00 -1.0800e-01  2.9403e+02  3.6572e+02  6.0214e+00  6.0188e+00  2.6176e-03  8.0311e-08  7.3231e-02  0.0000e+00  0.0000e+00  1.8428e-10
Flow time = 596.6s, time step = 2983
17 more time steps

Updating solution at time level N... done.
Injecting 1648 particle parcels with mass 2e-11 at t = 596.6

Advancing DPM injections ....
number tracked = 1019765, escaped = 476, aborted = 0, trapped = 1187, evaporated = 0, incomplete = 0, incomplete_parallel = 0

  iter     time/iter
  step  flow-time  volflow_or  volflow_in volflow_cor     temp_p1    temp_max pressure_or pressure_dif pressure_cor mass_balance heat_balance      dpm_p2      dpm_or     dpm_cor
  2984  5.9680e+02 -2.1069e+00  2.1019e+00 -1.0800e-01  2.9403e+02  3.6572e+02  6.0214e+00  6.0188e+00  2.6176e-03  8.0311e-08  7.3231e-02  0.0000e+00  0.0000e+00  1.8428e-10
Flow time = 596.8000000000001s, time step = 2984
16 more time steps

Updating solution at time level N... done.
Injecting 1648 particle parcels with mass 2e-11 at t = 596.8

Advancing DPM injections ....
number tracked = 1019750, escaped = 396, aborted = 0, trapped = 1132, evaporated = 0, incomplete = 0, incomplete_parallel = 0

  iter     time/iter
  step  flow-time  volflow_or  volflow_in volflow_cor     temp_p1    temp_max pressure_or pressure_dif pressure_cor mass_balance heat_balance      dpm_p2      dpm_or     dpm_cor
  2985  5.9700e+02 -2.1069e+00  2.1019e+00 -1.0800e-01  2.9403e+02  3.6572e+02  6.0214e+00  6.0188e+00  2.6176e-03  8.0311e-08  7.3231e-02  0.0000e+00  0.0000e+00  1.8429e-10
Flow time = 597s, time step = 2985
15 more time steps

Updating solution at time level N... done.
Injecting 1648 particle parcels with mass 2e-11 at t = 597

Advancing DPM injections ....
number tracked = 1019870, escaped = 407, aborted = 0, trapped = 1186, evaporated = 0, incomplete = 0, incomplete_parallel = 0

  iter     time/iter
  step  flow-time  volflow_or  volflow_in volflow_cor     temp_p1    temp_max pressure_or pressure_dif pressure_cor mass_balance heat_balance      dpm_p2      dpm_or     dpm_cor
  2986  5.9720e+02 -2.1069e+00  2.1019e+00 -1.0800e-01  2.9403e+02  3.6572e+02  6.0214e+00  6.0188e+00  2.6176e-03  8.0311e-08  7.3231e-02  0.0000e+00  0.0000e+00  1.8430e-10
Flow time = 597.2s, time step = 2986
14 more time steps

Updating solution at time level N... done.
Injecting 1648 particle parcels with mass 2e-11 at t = 597.2

Advancing DPM injections ....
number tracked = 1019925, escaped = 402, aborted = 0, trapped = 1191, evaporated = 0, incomplete = 0, incomplete_parallel = 0

  iter     time/iter
  step  flow-time  volflow_or  volflow_in volflow_cor     temp_p1    temp_max pressure_or pressure_dif pressure_cor mass_balance heat_balance      dpm_p2      dpm_or     dpm_cor
  2987  5.9740e+02 -2.1069e+00  2.1019e+00 -1.0800e-01  2.9403e+02  3.6572e+02  6.0214e+00  6.0188e+00  2.6176e-03  8.0311e-08  7.3231e-02  0.0000e+00  0.0000e+00  1.8432e-10
Flow time = 597.4s, time step = 2987
13 more time steps

Updating solution at time level N... done.
Injecting 1648 particle parcels with mass 2e-11 at t = 597.4

Advancing DPM injections ....
number tracked = 1019980, escaped = 431, aborted = 0, trapped = 1166, evaporated = 0, incomplete = 0, incomplete_parallel = 0

  iter     time/iter
  step  flow-time  volflow_or  volflow_in volflow_cor     temp_p1    temp_max pressure_or pressure_dif pressure_cor mass_balance heat_balance      dpm_p2      dpm_or     dpm_cor
  2988  5.9760e+02 -2.1069e+00  2.1019e+00 -1.0800e-01  2.9403e+02  3.6572e+02  6.0214e+00  6.0188e+00  2.6176e-03  8.0311e-08  7.3231e-02  0.0000e+00  0.0000e+00  1.8432e-10
Flow time = 597.6s, time step = 2988
12 more time steps

Updating solution at time level N... done.
Injecting 1648 particle parcels with mass 2e-11 at t = 597.6

Advancing DPM injections ....
number tracked = 1020031, escaped = 428, aborted = 0, trapped = 1161, evaporated = 0, incomplete = 0, incomplete_parallel = 0

  iter     time/iter
  step  flow-time  volflow_or  volflow_in volflow_cor     temp_p1    temp_max pressure_or pressure_dif pressure_cor mass_balance heat_balance      dpm_p2      dpm_or     dpm_cor
  2989  5.9780e+02 -2.1069e+00  2.1019e+00 -1.0800e-01  2.9403e+02  3.6572e+02  6.0214e+00  6.0188e+00  2.6176e-03  8.0311e-08  7.3231e-02  0.0000e+00  0.0000e+00  1.8433e-10
Flow time = 597.8000000000001s, time step = 2989
11 more time steps

Updating solution at time level N... done.
Injecting 1648 particle parcels with mass 2e-11 at t = 597.8

Advancing DPM injections ....
number tracked = 1020090, escaped = 435, aborted = 0, trapped = 1149, evaporated = 0, incomplete = 0, incomplete_parallel = 0

  iter     time/iter
/file/read-macros controlruntime.scm
Loading "././controlruntime.scm"
/solve/execute-commands add-edit control-run-time Editing control-run-time
10 
Options: "iteration" "time-step"
"time-step"  "/file/read-macros controlruntime.scm"  Done.

> 
  step  flow-time  volflow_or  volflow_in volflow_cor     temp_p1    temp_max pressure_or pressure_dif pressure_cor mass_balance heat_balance      dpm_p2      dpm_or     dpm_cor
  2990  5.9800e+02 -2.1069e+00  2.1019e+00 -1.0800e-01  2.9403e+02  3.6572e+02  6.0214e+00  6.0188e+00  2.6176e-03  8.0311e-08  7.3231e-02  0.0000e+00  0.0000e+00  1.8434e-10
Flow time = 598s, time step = 2990
10 more time steps

Updating solution at time level N... done.
Injecting 1648 particle parcels with mass 2e-11 at t = 598

Advancing DPM injections ....
number tracked = 1020154, escaped = 411, aborted = 0, trapped = 1234, evaporated = 0, incomplete = 0, incomplete_parallel = 0

  iter     time/iter
  step  flow-time  volflow_or  volflow_in volflow_cor     temp_p1    temp_max pressure_or pressure_dif pressure_cor mass_balance heat_balance      dpm_p2      dpm_or     dpm_cor
  2991  5.9820e+02 -2.1069e+00  2.1019e+00 -1.0800e-01  2.9403e+02  3.6572e+02  6.0214e+00  6.0188e+00  2.6176e-03  8.0311e-08  7.3231e-02  0.0000e+00  0.0000e+00  1.8434e-10
Flow time = 598.2s, time step = 2991
9 more time steps

Updating solution at time level N... done.
Injecting 1648 particle parcels with mass 2e-11 at t = 598.2

Advancing DPM injections ....
number tracked = 1020157, escaped = 448, aborted = 0, trapped = 1269, evaporated = 0, incomplete = 0, incomplete_parallel = 0

  iter     time/iter
  step  flow-time  volflow_or  volflow_in volflow_cor     temp_p1    temp_max pressure_or pressure_dif pressure_cor mass_balance heat_balance      dpm_p2      dpm_or     dpm_cor
  2992  5.9840e+02 -2.1069e+00  2.1019e+00 -1.0800e-01  2.9403e+02  3.6572e+02  6.0214e+00  6.0188e+00  2.6176e-03  8.0311e-08  7.3231e-02  0.0000e+00  0.0000e+00  1.8433e-10
Flow time = 598.4s, time step = 2992
8 more time steps

Updating solution at time level N... done.
Injecting 1648 particle parcels with mass 2e-11 at t = 598.4

Advancing DPM injections ....
number tracked = 1020088, escaped = 380, aborted = 0, trapped = 1146, evaporated = 0, incomplete = 0, incomplete_parallel = 0

  iter     time/iter
  step  flow-time  volflow_or  volflow_in volflow_cor     temp_p1    temp_max pressure_or pressure_dif pressure_cor mass_balance heat_balance      dpm_p2      dpm_or     dpm_cor
  2993  5.9860e+02 -2.1069e+00  2.1019e+00 -1.0800e-01  2.9403e+02  3.6572e+02  6.0214e+00  6.0188e+00  2.6176e-03  8.0311e-08  7.3231e-02  0.0000e+00  0.0000e+00  1.8435e-10
Flow time = 598.6s, time step = 2993
7 more time steps

Updating solution at time level N... done.
Injecting 1648 particle parcels with mass 2e-11 at t = 598.6

Advancing DPM injections ....
number tracked = 1020210, escaped = 418, aborted = 0, trapped = 1190, evaporated = 0, incomplete = 0, incomplete_parallel = 0

  iter     time/iter
  step  flow-time  volflow_or  volflow_in volflow_cor     temp_p1    temp_max pressure_or pressure_dif pressure_cor mass_balance heat_balance      dpm_p2      dpm_or     dpm_cor
  2994  5.9880e+02 -2.1069e+00  2.1019e+00 -1.0800e-01  2.9403e+02  3.6572e+02  6.0214e+00  6.0188e+00  2.6176e-03  8.0311e-08  7.3231e-02  0.0000e+00  0.0000e+00  1.8436e-10
Flow time = 598.8000000000001s, time step = 2994
6 more time steps

Updating solution at time level N... done.
Injecting 1648 particle parcels with mass 2e-11 at t = 598.8

Advancing DPM injections ....
number tracked = 1020250, escaped = 407, aborted = 0, trapped = 1258, evaporated = 0, incomplete = 0, incomplete_parallel = 0

  iter     time/iter
  step  flow-time  volflow_or  volflow_in volflow_cor     temp_p1    temp_max pressure_or pressure_dif pressure_cor mass_balance heat_balance      dpm_p2      dpm_or     dpm_cor
  2995  5.9900e+02 -2.1069e+00  2.1019e+00 -1.0800e-01  2.9403e+02  3.6572e+02  6.0214e+00  6.0188e+00  2.6176e-03  8.0311e-08  7.3231e-02  0.0000e+00  0.0000e+00  1.8435e-10
Flow time = 599s, time step = 2995
5 more time steps

Updating solution at time level N... done.
Injecting 1648 particle parcels with mass 2e-11 at t = 599

Advancing DPM injections ....
number tracked = 1020233, escaped = 459, aborted = 0, trapped = 1088, evaporated = 0, incomplete = 0, incomplete_parallel = 0

  iter     time/iter
  step  flow-time  volflow_or  volflow_in volflow_cor     temp_p1    temp_max pressure_or pressure_dif pressure_cor mass_balance heat_balance      dpm_p2      dpm_or     dpm_cor
  2996  5.9920e+02 -2.1069e+00  2.1019e+00 -1.0800e-01  2.9403e+02  3.6572e+02  6.0214e+00  6.0188e+00  2.6176e-03  8.0311e-08  7.3231e-02  0.0000e+00  0.0000e+00  1.8438e-10
Flow time = 599.2s, time step = 2996
4 more time steps

Updating solution at time level N... done.
Injecting 1648 particle parcels with mass 2e-11 at t = 599.2

Advancing DPM injections ....
number tracked = 1020334, escaped = 451, aborted = 0, trapped = 1160, evaporated = 0, incomplete = 0, incomplete_parallel = 0

  iter     time/iter
  step  flow-time  volflow_or  volflow_in volflow_cor     temp_p1    temp_max pressure_or pressure_dif pressure_cor mass_balance heat_balance      dpm_p2      dpm_or     dpm_cor
  2997  5.9940e+02 -2.1069e+00  2.1019e+00 -1.0800e-01  2.9403e+02  3.6572e+02  6.0214e+00  6.0188e+00  2.6176e-03  8.0311e-08  7.3231e-02  0.0000e+00  0.0000e+00  1.8438e-10
Flow time = 599.4s, time step = 2997
3 more time steps

Updating solution at time level N... done.
Injecting 1648 particle parcels with mass 2e-11 at t = 599.4

Advancing DPM injections ....
number tracked = 1020371, escaped = 432, aborted = 0, trapped = 1189, evaporated = 0, incomplete = 0, incomplete_parallel = 0

  iter     time/iter
  step  flow-time  volflow_or  volflow_in volflow_cor     temp_p1    temp_max pressure_or pressure_dif pressure_cor mass_balance heat_balance      dpm_p2      dpm_or     dpm_cor
  2998  5.9960e+02 -2.1069e+00  2.1019e+00 -1.0800e-01  2.9403e+02  3.6572e+02  6.0214e+00  6.0188e+00  2.6176e-03  8.0311e-08  7.3231e-02  0.0000e+00  0.0000e+00  1.8439e-10
Flow time = 599.6s, time step = 2998
2 more time steps

Updating solution at time level N... done.
Injecting 1648 particle parcels with mass 2e-11 at t = 599.6

Advancing DPM injections ....
number tracked = 1020398, escaped = 440, aborted = 0, trapped = 1225, evaporated = 0, incomplete = 0, incomplete_parallel = 0

  iter     time/iter
  step  flow-time  volflow_or  volflow_in volflow_cor     temp_p1    temp_max pressure_or pressure_dif pressure_cor mass_balance heat_balance      dpm_p2      dpm_or     dpm_cor
  2999  5.9980e+02 -2.1069e+00  2.1019e+00 -1.0800e-01  2.9403e+02  3.6572e+02  6.0214e+00  6.0188e+00  2.6176e-03  8.0311e-08  7.3231e-02  0.0000e+00  0.0000e+00  1.8438e-10
Flow time = 599.8000000000001s, time step = 2999
1 more time step

Updating solution at time level N... done.
Injecting 1648 particle parcels with mass 2e-11 at t = 599.8

Advancing DPM injections ....
number tracked = 1020381, escaped = 428, aborted = 0, trapped = 1207, evaporated = 0, incomplete = 0, incomplete_parallel = 0

  iter     time/iter
/file/read-macros controlruntime.scm
Loading "././controlruntime.scm"
/solve/execute-commands add-edit control-run-time Editing control-run-time
10 
Options: "iteration" "time-step"
"time-step"  "/file/read-macros controlruntime.scm"  Done.

> 
Host receiving summary from compute node zero.

Writing "| gzip -2cfv > \"OR-COR-5-03000.dat.gz\""...

Done.

  step  flow-time  volflow_or  volflow_in volflow_cor     temp_p1    temp_max pressure_or pressure_dif pressure_cor mass_balance heat_balance      dpm_p2      dpm_or     dpm_cor
  3000  6.0000e+02 -2.1069e+00  2.1019e+00 -1.0800e-01  2.9403e+02  3.6572e+02  6.0214e+00  6.0188e+00  2.6176e-03  8.0311e-08  7.3231e-02  0.0000e+00  0.0000e+00  1.8438e-10
Flow time = 600s, time step = 3000
, invalid command [,]
, , , 

> ;
;
; solve/dpm-update
; report/dpm-summary
;
;
;
;
; file/confirm-overwrite yes
; file/write-case OR-COR.cas.gz yes
; file/write-data OR-COR.dat.gz yes
;
;
exit 
Posting ANSYS Product Improvement Program performance data 
Done.
