/pdc/vol/ansys/19.1/v191/fluent/fluent19.1.0/bin/fluent -r19.1.0 3ddp -gu -slurm -t 96 -mpi=ibmmpi -pib -i journal.jou
/pdc/vol/ansys/19.1/v191/fluent/fluent19.1.0/cortex/lnamd64/cortex.19.1.0 -f fluent -gu -i journal.jou (fluent "3ddp -pinfiniband  -host -r19.1.0 -t96 -mpi=ibmmpi -path/pdc/vol/ansys/19.1/v191/fluent -ssh")

WARNING:
Specified graphics driver "x11" is not available on the current runtime environment.
The most appropriate graphics driver based on the current runtime environment is: "null".
Setting graphics driver to: "null".
/pdc/vol/ansys/19.1/v191/fluent/fluent19.1.0/bin/fluent -r19.1.0 3ddp -pinfiniband -host -t96 -mpi=ibmmpi -path/pdc/vol/ansys/19.1/v191/fluent -ssh -cx t02n21.pdc.kth.se:45711:36565
Starting /pdc/vol/ansys/19.1/v191/fluent/fluent19.1.0/lnamd64/3ddp_host/fluent.19.1.0 host -cx t02n21.pdc.kth.se:45711:36565 "(list (rpsetvar (QUOTE parallel/function) "fluent 3ddp -flux -node -r19.1.0 -t96 -pinfiniband -mpi=ibmmpi -ssh") (rpsetvar (QUOTE parallel/rhost) "") (rpsetvar (QUOTE parallel/ruser) "") (rpsetvar (QUOTE parallel/nprocs_string) "96") (rpsetvar (QUOTE parallel/auto-spawn?) #t) (rpsetvar (QUOTE parallel/trace-level) 0) (rpsetvar (QUOTE parallel/remote-shell) 1) (rpsetvar (QUOTE parallel/path) "/pdc/vol/ansys/19.1/v191/fluent") (rpsetvar (QUOTE parallel/hostsfile) "") )"

              Welcome to ANSYS Fluent Release 19.1

              Copyright 1987-2018 ANSYS, Inc. All Rights Reserved.
              Unauthorized use, distribution or duplication is prohibited.
              This product is subject to U.S. laws governing export and re-export.
              For full Legal Notice, see documentation.

Build Time: Apr 09 2018 13:46:05 EDT  Build Id: 10123  
 

     --------------------------------------------------------------
     This is an academic version of ANSYS FLUENT. Usage of this product
     license is limited to the terms and conditions specified in your ANSYS
     license form, additional terms section.
     --------------------------------------------------------------
Host spawning Node 0 on machine "t02n21.pdc.kth.se" (unix).
/pdc/vol/ansys/19.1/v191/fluent/fluent19.1.0/bin/fluent -r19.1.0 3ddp -flux -node -t96 -pinfiniband -mpi=ibmmpi -ssh -mport 193.10.157.122:193.10.157.122:34116:0
-- srun ibmmpi launch --
Starting /pdc/vol/ansys/19.1/v191/fluent/fluent19.1.0/multiport/mpi/lnamd64/ibmmpi/bin/mpirun -e MPI_IBV_NO_FORK_SAFE=1 -e MPI_USE_MALLOPT_MMAP_MAX=0 -prot -IBV -e MPI_HASIC_IBV=1 -srun -n 96 /pdc/vol/ansys/19.1/v191/fluent/fluent19.1.0/lnamd64/3ddp_node/fluent_mpi.19.1.0 node -mpiw ibmmpi -pic infiniband -mport 193.10.157.122:193.10.157.122:34116:0
Host 0 -- ip 193.10.157.122 -- ranks 0 - 23
Host 1 -- ip 193.10.157.125 -- ranks 24 - 47
Host 2 -- ip 193.10.157.128 -- ranks 48 - 71
Host 3 -- ip 193.10.157.156 -- ranks 72 - 95

 host | 0    1    2    3
======|=====================
    0 : SHM  IBV  IBV  IBV
    1 : IBV  SHM  IBV  IBV
    2 : IBV  IBV  SHM  IBV
    3 : IBV  IBV  IBV  SHM

 Prot -  All Intra-node communication is: SHM
 Prot -  All Inter-node communication is: IBV


--------------------------------------------------------------------------------------
ID      Hostname           Core   O.S.      PID          Vendor                      
--------------------------------------------------------------------------------------
n72-95  t03n19.pdc.kth.se  24/48  Linux-64  19802-19825  Intel(R) Xeon(R) E5-2690 v3 
n48-71  t02n33.pdc.kth.se  24/48  Linux-64  37510-37533  Intel(R) Xeon(R) E5-2690 v3 
n24-47  t02n30.pdc.kth.se  24/48  Linux-64  28697-28720  Intel(R) Xeon(R) E5-2690 v3 
n0-23   t02n21.pdc.kth.se  24/48  Linux-64  34485-34508  Intel(R) Xeon(R) E5-2690 v3 
host    t02n21.pdc.kth.se         Linux-64  34298        Intel(R) Xeon(R) E5-2690 v3 

MPI Option Selected: ibmmpi
Selected system interconnect: InfiniBand
--------------------------------------------------------------------------------------


Posting ANSYS Product Improvement Program startup data
Done.

Reading journal file journal.jou...

> ;
;
file/read-case OR-COR-5.cas.gz

Multicore SMT processors detected. Processor affinity set!

Reading "\"| gunzip -c \\\"OR-COR-5.cas.gz\\\"\""...

Buffering for file scan...



 8039712 mixed cells, zone 73, binary.
 3209832 mixed cells, zone 74, binary.
 8039712 cell partition ids, zone 73, 96 partitions, binary.
 3209832 cell partition ids, zone 74, 96 partitions, binary.
16656067 mixed interior faces, zone 244, binary.
 6605687 mixed interior faces, zone 245, binary.
     574 mixed wall faces, zone 77, binary.
     574 mixed wall faces, zone  2, binary.
     574 mixed wall faces, zone 78, binary.
     574 mixed wall faces, zone  3, binary.
     574 mixed wall faces, zone 79, binary.
     574 mixed wall faces, zone  4, binary.
     574 mixed wall faces, zone 80, binary.
     574 mixed wall faces, zone  5, binary.
     574 mixed wall faces, zone 81, binary.
     574 mixed wall faces, zone  6, binary.
     898 mixed wall faces, zone 82, binary.
     898 mixed wall faces, zone  7, binary.
     574 mixed wall faces, zone 83, binary.
     574 mixed wall faces, zone  8, binary.
     572 mixed wall faces, zone 84, binary.
     572 mixed wall faces, zone  9, binary.
     574 mixed wall faces, zone 85, binary.
     574 mixed wall faces, zone 10, binary.
     574 mixed wall faces, zone 86, binary.
     574 mixed wall faces, zone 11, binary.
     574 mixed wall faces, zone 87, binary.
     574 mixed wall faces, zone 12, binary.
     574 mixed wall faces, zone 88, binary.
     574 mixed wall faces, zone 13, binary.
     574 mixed wall faces, zone 89, binary.
     574 mixed wall faces, zone 14, binary.
     572 mixed wall faces, zone 90, binary.
     572 mixed wall faces, zone 15, binary.
     574 mixed wall faces, zone 91, binary.
     574 mixed wall faces, zone 16, binary.
     574 mixed wall faces, zone 92, binary.
     574 mixed wall faces, zone 17, binary.
     574 mixed wall faces, zone 93, binary.
     574 mixed wall faces, zone 18, binary.
     572 mixed wall faces, zone 94, binary.
     572 mixed wall faces, zone 19, binary.
     574 mixed wall faces, zone 95, binary.
     574 mixed wall faces, zone 20, binary.
     574 mixed wall faces, zone 96, binary.
     574 mixed wall faces, zone 21, binary.
     574 mixed wall faces, zone 97, binary.
     574 mixed wall faces, zone 22, binary.
     574 mixed wall faces, zone 98, binary.
     574 mixed wall faces, zone 23, binary.
     574 mixed wall faces, zone 99, binary.
     574 mixed wall faces, zone 24, binary.
     574 mixed wall faces, zone 100, binary.
     574 mixed wall faces, zone 25, binary.
     574 mixed wall faces, zone 101, binary.
     574 mixed wall faces, zone 26, binary.
     574 mixed wall faces, zone 102, binary.
     574 mixed wall faces, zone 27, binary.
     574 mixed wall faces, zone 103, binary.
     574 mixed wall faces, zone 28, binary.
     572 mixed wall faces, zone 104, binary.
     572 mixed wall faces, zone 29, binary.
     574 mixed wall faces, zone 105, binary.
     574 mixed wall faces, zone 30, binary.
     572 mixed wall faces, zone 106, binary.
     572 mixed wall faces, zone 31, binary.
     574 mixed wall faces, zone 107, binary.
     574 mixed wall faces, zone 32, binary.
     572 mixed wall faces, zone 108, binary.
     572 mixed wall faces, zone 33, binary.
     574 mixed wall faces, zone 109, binary.
     574 mixed wall faces, zone 34, binary.
     574 mixed wall faces, zone 110, binary.
     574 mixed wall faces, zone 35, binary.
     574 mixed wall faces, zone 111, binary.
     574 mixed wall faces, zone 36, binary.
     572 mixed wall faces, zone 112, binary.
     572 mixed wall faces, zone 37, binary.
     574 mixed wall faces, zone 113, binary.
     574 mixed wall faces, zone 38, binary.
     572 mixed wall faces, zone 114, binary.
     572 mixed wall faces, zone 39, binary.
     574 mixed wall faces, zone 115, binary.
     574 mixed wall faces, zone 40, binary.
     574 mixed wall faces, zone 116, binary.
     574 mixed wall faces, zone 41, binary.
     574 mixed wall faces, zone 117, binary.
     574 mixed wall faces, zone 42, binary.
     572 mixed wall faces, zone 118, binary.
     572 mixed wall faces, zone 43, binary.
     574 mixed wall faces, zone 119, binary.
     574 mixed wall faces, zone 44, binary.
     574 mixed wall faces, zone 120, binary.
     574 mixed wall faces, zone 45, binary.
     574 mixed wall faces, zone 121, binary.
     574 mixed wall faces, zone 46, binary.
     574 mixed wall faces, zone 122, binary.
     574 mixed wall faces, zone 47, binary.
     574 mixed wall faces, zone 123, binary.
     574 mixed wall faces, zone 48, binary.
     572 mixed wall faces, zone 124, binary.
     572 mixed wall faces, zone 49, binary.
     976 mixed wall faces, zone 125, binary.
     976 mixed wall faces, zone 50, binary.
     574 mixed wall faces, zone 126, binary.
     574 mixed wall faces, zone 51, binary.
   42971 triangular velocity-inlet faces, zone 127, binary.
    3750 triangular pressure-outlet faces, zone 128, binary.
    1648 triangular velocity-inlet faces, zone 129, binary.
     562 triangular pressure-outlet faces, zone 130, binary.
  194098 triangular wall faces, zone 131, binary.
   98153 triangular wall faces, zone 132, binary.
    7947 triangular wall faces, zone 133, binary.
   37956 triangular wall faces, zone 134, binary.
    1826 triangular wall faces, zone 135, binary.
     916 triangular wall faces, zone 136, binary.
    6092 triangular wall faces, zone 137, binary.
     117 triangular wall faces, zone 138, binary.
     574 shadow face pairs, binary. 
     574 shadow face pairs, binary. 
     574 shadow face pairs, binary. 
     574 shadow face pairs, binary. 
     574 shadow face pairs, binary. 
     898 shadow face pairs, binary. 
     574 shadow face pairs, binary. 
     572 shadow face pairs, binary. 
     574 shadow face pairs, binary. 
     574 shadow face pairs, binary. 
     574 shadow face pairs, binary. 
     574 shadow face pairs, binary. 
     574 shadow face pairs, binary. 
     572 shadow face pairs, binary. 
     574 shadow face pairs, binary. 
     574 shadow face pairs, binary. 
     574 shadow face pairs, binary. 
     572 shadow face pairs, binary. 
     574 shadow face pairs, binary. 
     574 shadow face pairs, binary. 
     574 shadow face pairs, binary. 
     574 shadow face pairs, binary. 
     574 shadow face pairs, binary. 
     574 shadow face pairs, binary. 
     574 shadow face pairs, binary. 
     574 shadow face pairs, binary. 
     574 shadow face pairs, binary. 
     572 shadow face pairs, binary. 
     574 shadow face pairs, binary. 
     572 shadow face pairs, binary. 
     574 shadow face pairs, binary. 
     572 shadow face pairs, binary. 
     574 shadow face pairs, binary. 
     574 shadow face pairs, binary. 
     574 shadow face pairs, binary. 
     572 shadow face pairs, binary. 
     574 shadow face pairs, binary. 
     572 shadow face pairs, binary. 
     574 shadow face pairs, binary. 
     574 shadow face pairs, binary. 
     574 shadow face pairs, binary. 
     572 shadow face pairs, binary. 
     574 shadow face pairs, binary. 
     574 shadow face pairs, binary. 
     574 shadow face pairs, binary. 
     574 shadow face pairs, binary. 
     574 shadow face pairs, binary. 
     572 shadow face pairs, binary. 
     976 shadow face pairs, binary. 
     574 shadow face pairs, binary. 
 2650702 nodes, binary.
2650702 node flags, binary.
   80802 "cor-inlet-profile" point-profile points, x, y, z, u, v, w.
  348480 "or-inlet-profile" point-profile points, x, y, z, u, v, w.

Building...
     mesh
	distributing mesh
		pairs..................................................,
		parts..................................................,
		faces..................................................,
		nodes..................................................,
		shadow nodes..................................................,
		cells..................................................,
        bandwidth reduction using Reverse Cuthill-McKee: 120171/2516 = 47.7627
     materials,
     interface,
     domains,
	mixture
     zones,
	sampler
	or_equip
	or_lamp_heat
	or_lamp_wall
	or_persons
	or_table
	cor_wall
	or_wall
	cor_outlet
	cor_inlet
	or_inlet
	interior-cor
	interior-or
	or_outlet
	xdoor-d50
	xdoor-d50-shadow
	xdoor-d49
	xdoor-d49-shadow
	xdoor-d48
	xdoor-d48-shadow
	xdoor-d47
	xdoor-d47-shadow
	xdoor-d46
	xdoor-d46-shadow
	xdoor-d45
	xdoor-d45-shadow
	xdoor-d44
	xdoor-d44-shadow
	xdoor-d43
	xdoor-d43-shadow
	xdoor-d42
	xdoor-d42-shadow
	xdoor-d41
	xdoor-d41-shadow
	xdoor-d40
	xdoor-d40-shadow
	xdoor-d39
	xdoor-d39-shadow
	xdoor-d38
	xdoor-d38-shadow
	xdoor-d37
	xdoor-d37-shadow
	xdoor-d36
	xdoor-d36-shadow
	xdoor-d35
	xdoor-d35-shadow
	xdoor-d34
	xdoor-d34-shadow
	xdoor-d33
	xdoor-d33-shadow
	xdoor-d32
	xdoor-d32-shadow
	xdoor-d31
	xdoor-d31-shadow
	xdoor-d30
	xdoor-d30-shadow
	xdoor-d29
	xdoor-d29-shadow
	xdoor-d28
	xdoor-d28-shadow
	xdoor-d27
	xdoor-d27-shadow
	xdoor-d26
	xdoor-d26-shadow
	xdoor-d25
	xdoor-d25-shadow
	xdoor-d24
	xdoor-d24-shadow
	xdoor-d23
	xdoor-d23-shadow
	xdoor-d22
	xdoor-d22-shadow
	xdoor-d21
	xdoor-d21-shadow
	xdoor-d20
	xdoor-d20-shadow
	xdoor-d19
	xdoor-d19-shadow
	xdoor-d18
	xdoor-d18-shadow
	xdoor-d17
	xdoor-d17-shadow
	xdoor-d16
	xdoor-d16-shadow
	xdoor-d15
	xdoor-d15-shadow
	xdoor-d14
	xdoor-d14-shadow
	xdoor-d13
	xdoor-d13-shadow
	xdoor-d12
	xdoor-d12-shadow
	xdoor-d11
	xdoor-d11-shadow
	xdoor-d10
	xdoor-d10-shadow
	xdoor-d09
	xdoor-d09-shadow
	xdoor-d08
	xdoor-d08-shadow
	xdoor-d07
	xdoor-d07-shadow
	xdoor-d06
	xdoor-d06-shadow
	xdoor-d05
	xdoor-d05-shadow
	xdoor-d04
	xdoor-d04-shadow
	xdoor-d03
	xdoor-d03-shadow
	xdoor-d02
	xdoor-d02-shadow
	xdoor-d01
	xdoor-d01-shadow
	cor
	or
     parallel,
Done.

> file/read-data OR-COR-5-03000.dat.gz

Reading "\"| gunzip -c \\\"OR-COR-5-03000.dat.gz\\\"\""...




reading 1018746 particles for injection injection-1.
 
 read 1018746 particles for injection injection-1.
 locating particles on compute nodes...
all particles successfully re-located!
Parallel variables...
Done.

> ;
;
; 
;
; solve/set/under-relaxation pressure 0.7 mom 0.3 temperature 1.0  k 0.8  epsilon 0.8
;
; solve/monitors/residual/convergence-criteria 1e-5 , , , , , , , , , , , , ;
;
;
; define/boundary-conditions/outlet-vent , , , , , , , , , , , , , , ,   5.0
;
;
;
file/auto-save/case-frequency if-case-is-modified

> file/auto-save/data-frequency 500

> file/auto-save/root-name OR-COR.gz

> ;
;
;
;
; solve/initialize/initialize-flow
; solve/initialize/hyb-initialization
; solve/initialize/fmg-initialization yes
;
;
;
;
; solve/iterate 6000
solve/set/time-step 0.2

> solve/dual-time-iterate 3000 50 
Updating solution at time level N... done.
Injecting 1648 particle parcels with mass 2e-11 at t = 600

Advancing DPM injections ....
number tracked = 1020394, escaped = 453, aborted = 0, trapped = 1217, evaporated = 0, incomplete = 0, incomplete_parallel = 0

  iter     time/iter
  step  flow-time  volflow_or  volflow_in volflow_cor     temp_p1    temp_max pressure_or pressure_dif pressure_cor mass_balance heat_balance      dpm_p2      dpm_or     dpm_cor
  3001  6.0020e+02 -2.1069e+00  2.1019e+00 -1.0800e-01  2.9403e+02  3.6572e+02  6.0214e+00  6.0188e+00  2.6176e-03  8.0311e-08  7.3231e-02  0.0000e+00  0.0000e+00  1.8438e-10
Flow time = 600.2s, time step = 3001
2999 more time steps

Updating solution at time level N... done.
Injecting 1648 particle parcels with mass 2e-11 at t = 600.2

Advancing DPM injections ....
number tracked = 1020372, escaped = 432, aborted = 0, trapped = 1174, evaporated = 0, incomplete = 0, incomplete_parallel = 0

  iter     time/iter
  step  flow-time  volflow_or  volflow_in volflow_cor     temp_p1    temp_max pressure_or pressure_dif pressure_cor mass_balance heat_balance      dpm_p2      dpm_or     dpm_cor
  3002  6.0040e+02 -2.1069e+00  2.1019e+00 -1.0800e-01  2.9403e+02  3.6572e+02  6.0214e+00  6.0188e+00  2.6176e-03  8.0311e-08  7.3231e-02  0.0000e+00  0.0000e+00  1.8439e-10
Flow time = 600.4s, time step = 3002
2998 more time steps

Updating solution at time level N... done.
Injecting 1648 particle parcels with mass 2e-11 at t = 600.4

Advancing DPM injections ....
number tracked = 1020414, escaped = 413, aborted = 0, trapped = 1161, evaporated = 0, incomplete = 0, incomplete_parallel = 0

  iter     time/iter
  step  flow-time  volflow_or  volflow_in volflow_cor     temp_p1    temp_max pressure_or pressure_dif pressure_cor mass_balance heat_balance      dpm_p2      dpm_or     dpm_cor
  3003  6.0060e+02 -2.1069e+00  2.1019e+00 -1.0800e-01  2.9403e+02  3.6572e+02  6.0214e+00  6.0188e+00  2.6176e-03  8.0311e-08  7.3231e-02  0.0000e+00  0.0000e+00  1.8440e-10
Flow time = 600.6s, time step = 3003
2997 more time steps

Updating solution at time level N... done.
Injecting 1648 particle parcels with mass 2e-11 at t = 600.6

Advancing DPM injections ....
number tracked = 1020488, escaped = 446, aborted = 0, trapped = 1199, evaporated = 0, incomplete = 0, incomplete_parallel = 0

  iter     time/iter
  step  flow-time  volflow_or  volflow_in volflow_cor     temp_p1    temp_max pressure_or pressure_dif pressure_cor mass_balance heat_balance      dpm_p2      dpm_or     dpm_cor
  3004  6.0080e+02 -2.1069e+00  2.1019e+00 -1.0800e-01  2.9403e+02  3.6572e+02  6.0214e+00  6.0188e+00  2.6176e-03  8.0311e-08  7.3231e-02  0.0000e+00  0.0000e+00  1.8440e-10
Flow time = 600.8s, time step = 3004
2996 more time steps

Updating solution at time level N... done.
Injecting 1648 particle parcels with mass 2e-11 at t = 600.8

Advancing DPM injections ....
number tracked = 1020491, escaped = 449, aborted = 0, trapped = 1171, evaporated = 0, incomplete = 0, incomplete_parallel = 0

  iter     time/iter
  step  flow-time  volflow_or  volflow_in volflow_cor     temp_p1    temp_max pressure_or pressure_dif pressure_cor mass_balance heat_balance      dpm_p2      dpm_or     dpm_cor
  3005  6.0100e+02 -2.1069e+00  2.1019e+00 -1.0800e-01  2.9403e+02  3.6572e+02  6.0214e+00  6.0188e+00  2.6176e-03  8.0311e-08  7.3231e-02  0.0000e+00  0.0000e+00  1.8441e-10
Flow time = 601s, time step = 3005
2995 more time steps

Updating solution at time level N... done.
Injecting 1648 particle parcels with mass 2e-11 at t = 601

Advancing DPM injections ....
number tracked = 1020519, escaped = 436, aborted = 0, trapped = 1155, evaporated = 0, incomplete = 0, incomplete_parallel = 0

  iter     time/iter
  step  flow-time  volflow_or  volflow_in volflow_cor     temp_p1    temp_max pressure_or pressure_dif pressure_cor mass_balance heat_balance      dpm_p2      dpm_or     dpm_cor
  3006  6.0120e+02 -2.1069e+00  2.1019e+00 -1.0800e-01  2.9403e+02  3.6572e+02  6.0214e+00  6.0188e+00  2.6176e-03  8.0311e-08  7.3231e-02  0.0000e+00  0.0000e+00  1.8442e-10
Flow time = 601.2s, time step = 3006
2994 more time steps

Updating solution at time level N... done.
Injecting 1648 particle parcels with mass 2e-11 at t = 601.2

Advancing DPM injections ....
number tracked = 1020576, escaped = 410, aborted = 0, trapped = 1191, evaporated = 0, incomplete = 0, incomplete_parallel = 0

  iter     time/iter
  step  flow-time  volflow_or  volflow_in volflow_cor     temp_p1    temp_max pressure_or pressure_dif pressure_cor mass_balance heat_balance      dpm_p2      dpm_or     dpm_cor
  3007  6.0140e+02 -2.1069e+00  2.1019e+00 -1.0800e-01  2.9403e+02  3.6572e+02  6.0214e+00  6.0188e+00  2.6176e-03  8.0311e-08  7.3231e-02  0.0000e+00  0.0000e+00  1.8443e-10
Flow time = 601.4s, time step = 3007
2993 more time steps

Updating solution at time level N... done.
Injecting 1648 particle parcels with mass 2e-11 at t = 601.4

Advancing DPM injections ....
number tracked = 1020623, escaped = 428, aborted = 0, trapped = 1133, evaporated = 0, incomplete = 0, incomplete_parallel = 0

  iter     time/iter
  step  flow-time  volflow_or  volflow_in volflow_cor     temp_p1    temp_max pressure_or pressure_dif pressure_cor mass_balance heat_balance      dpm_p2      dpm_or     dpm_cor
  3008  6.0160e+02 -2.1069e+00  2.1019e+00 -1.0800e-01  2.9403e+02  3.6572e+02  6.0214e+00  6.0188e+00  2.6176e-03  8.0311e-08  7.3231e-02  0.0000e+00  0.0000e+00  1.8445e-10
Flow time = 601.6s, time step = 3008
2992 more time steps

Updating solution at time level N... done.
Injecting 1648 particle parcels with mass 2e-11 at t = 601.6

Advancing DPM injections ....
number tracked = 1020710, escaped = 427, aborted = 0, trapped = 1157, evaporated = 0, incomplete = 0, incomplete_parallel = 0

  iter     time/iter
  step  flow-time  volflow_or  volflow_in volflow_cor     temp_p1    temp_max pressure_or pressure_dif pressure_cor mass_balance heat_balance      dpm_p2      dpm_or     dpm_cor
  3009  6.0180e+02 -2.1069e+00  2.1019e+00 -1.0800e-01  2.9403e+02  3.6572e+02  6.0214e+00  6.0188e+00  2.6176e-03  8.0311e-08  7.3231e-02  0.0000e+00  0.0000e+00  1.8446e-10
Flow time = 601.8s, time step = 3009
2991 more time steps

Updating solution at time level N... done.
Injecting 1648 particle parcels with mass 2e-11 at t = 601.8

Advancing DPM injections ....
number tracked = 1020774, escaped = 464, aborted = 0, trapped = 1204, evaporated = 0, incomplete = 0, incomplete_parallel = 0

  iter     time/iter
/file/read-macros controlruntime.scm
Loading "././controlruntime.scm"
/solve/execute-commands add-edit control-run-time Editing control-run-time
10 
Options: "iteration" "time-step"
"time-step"  "/file/read-macros controlruntime.scm"  Done.

> 
  step  flow-time  volflow_or  volflow_in volflow_cor     temp_p1    temp_max pressure_or pressure_dif pressure_cor mass_balance heat_balance      dpm_p2      dpm_or     dpm_cor
  3010  6.0200e+02 -2.1069e+00  2.1019e+00 -1.0800e-01  2.9403e+02  3.6572e+02  6.0214e+00  6.0188e+00  2.6176e-03  8.0311e-08  7.3231e-02  0.0000e+00  0.0000e+00  1.8446e-10
Flow time = 602s, time step = 3010
2990 more time steps

Updating solution at time level N... done.
Injecting 1648 particle parcels with mass 2e-11 at t = 602

Advancing DPM injections ....
number tracked = 1020754, escaped = 448, aborted = 0, trapped = 1167, evaporated = 0, incomplete = 0, incomplete_parallel = 0

  iter     time/iter
  step  flow-time  volflow_or  volflow_in volflow_cor     temp_p1    temp_max pressure_or pressure_dif pressure_cor mass_balance heat_balance      dpm_p2      dpm_or     dpm_cor
  3011  6.0220e+02 -2.1069e+00  2.1019e+00 -1.0800e-01  2.9403e+02  3.6572e+02  6.0214e+00  6.0188e+00  2.6176e-03  8.0311e-08  7.3231e-02  0.0000e+00  0.0000e+00  1.8446e-10
Flow time = 602.2s, time step = 3011
2989 more time steps

Updating solution at time level N... done.
Injecting 1648 particle parcels with mass 2e-11 at t = 602.2

Advancing DPM injections ....
number tracked = 1020787, escaped = 460, aborted = 0, trapped = 1202, evaporated = 0, incomplete = 0, incomplete_parallel = 0

  iter     time/iter
  step  flow-time  volflow_or  volflow_in volflow_cor     temp_p1    temp_max pressure_or pressure_dif pressure_cor mass_balance heat_balance      dpm_p2      dpm_or     dpm_cor
  3012  6.0240e+02 -2.1069e+00  2.1019e+00 -1.0800e-01  2.9403e+02  3.6572e+02  6.0214e+00  6.0188e+00  2.6176e-03  8.0311e-08  7.3231e-02  0.0000e+00  0.0000e+00  1.8446e-10
Flow time = 602.4s, time step = 3012
2988 more time steps

Updating solution at time level N... done.
Injecting 1648 particle parcels with mass 2e-11 at t = 602.4

Advancing DPM injections ....
number tracked = 1020773, escaped = 397, aborted = 0, trapped = 1134, evaporated = 0, incomplete = 0, incomplete_parallel = 0

  iter     time/iter
  step  flow-time  volflow_or  volflow_in volflow_cor     temp_p1    temp_max pressure_or pressure_dif pressure_cor mass_balance heat_balance      dpm_p2      dpm_or     dpm_cor
  3013  6.0260e+02 -2.1069e+00  2.1019e+00 -1.0800e-01  2.9403e+02  3.6572e+02  6.0214e+00  6.0188e+00  2.6176e-03  8.0311e-08  7.3231e-02  0.0000e+00  0.0000e+00  1.8448e-10
Flow time = 602.6s, time step = 3013
2987 more time steps

Updating solution at time level N... done.
Injecting 1648 particle parcels with mass 2e-11 at t = 602.6

Advancing DPM injections ....
number tracked = 1020890, escaped = 413, aborted = 0, trapped = 1230, evaporated = 0, incomplete = 0, incomplete_parallel = 0

  iter     time/iter
  step  flow-time  volflow_or  volflow_in volflow_cor     temp_p1    temp_max pressure_or pressure_dif pressure_cor mass_balance heat_balance      dpm_p2      dpm_or     dpm_cor
  3014  6.0280e+02 -2.1069e+00  2.1019e+00 -1.0800e-01  2.9403e+02  3.6572e+02  6.0214e+00  6.0188e+00  2.6176e-03  8.0311e-08  7.3231e-02  0.0000e+00  0.0000e+00  1.8448e-10
Flow time = 602.8s, time step = 3014
2986 more time steps

Updating solution at time level N... done.
Injecting 1648 particle parcels with mass 2e-11 at t = 602.8

Advancing DPM injections ....
number tracked = 1020895, escaped = 420, aborted = 0, trapped = 1163, evaporated = 0, incomplete = 0, incomplete_parallel = 0

  iter     time/iter
  step  flow-time  volflow_or  volflow_in volflow_cor     temp_p1    temp_max pressure_or pressure_dif pressure_cor mass_balance heat_balance      dpm_p2      dpm_or     dpm_cor
  3015  6.0300e+02 -2.1069e+00  2.1019e+00 -1.0800e-01  2.9403e+02  3.6572e+02  6.0214e+00  6.0188e+00  2.6176e-03  8.0311e-08  7.3231e-02  0.0000e+00  0.0000e+00  1.8449e-10
Flow time = 603s, time step = 3015
2985 more time steps

Updating solution at time level N... done.
Injecting 1648 particle parcels with mass 2e-11 at t = 603

Advancing DPM injections ....
number tracked = 1020960, escaped = 386, aborted = 0, trapped = 1230, evaporated = 0, incomplete = 0, incomplete_parallel = 0

  iter     time/iter
  step  flow-time  volflow_or  volflow_in volflow_cor     temp_p1    temp_max pressure_or pressure_dif pressure_cor mass_balance heat_balance      dpm_p2      dpm_or     dpm_cor
  3016  6.0320e+02 -2.1069e+00  2.1019e+00 -1.0800e-01  2.9403e+02  3.6572e+02  6.0214e+00  6.0188e+00  2.6176e-03  8.0311e-08  7.3231e-02  0.0000e+00  0.0000e+00  1.8450e-10
Flow time = 603.2s, time step = 3016
2984 more time steps

Updating solution at time level N... done.
Injecting 1648 particle parcels with mass 2e-11 at t = 603.2

Advancing DPM injections ....
number tracked = 1020992, escaped = 421, aborted = 0, trapped = 1197, evaporated = 0, incomplete = 0, incomplete_parallel = 0

  iter     time/iter
  step  flow-time  volflow_or  volflow_in volflow_cor     temp_p1    temp_max pressure_or pressure_dif pressure_cor mass_balance heat_balance      dpm_p2      dpm_or     dpm_cor
  3017  6.0340e+02 -2.1069e+00  2.1019e+00 -1.0800e-01  2.9403e+02  3.6572e+02  6.0214e+00  6.0188e+00  2.6176e-03  8.0311e-08  7.3231e-02  0.0000e+00  0.0000e+00  1.8451e-10
Flow time = 603.4s, time step = 3017
2983 more time steps

Updating solution at time level N... done.
Injecting 1648 particle parcels with mass 2e-11 at t = 603.4

Advancing DPM injections ....
number tracked = 1021022, escaped = 446, aborted = 0, trapped = 1244, evaporated = 0, incomplete = 0, incomplete_parallel = 0

  iter     time/iter
  step  flow-time  volflow_or  volflow_in volflow_cor     temp_p1    temp_max pressure_or pressure_dif pressure_cor mass_balance heat_balance      dpm_p2      dpm_or     dpm_cor
  3018  6.0360e+02 -2.1069e+00  2.1019e+00 -1.0800e-01  2.9403e+02  3.6572e+02  6.0214e+00  6.0188e+00  2.6176e-03  8.0311e-08  7.3231e-02  0.0000e+00  0.0000e+00  1.8450e-10
Flow time = 603.6s, time step = 3018
2982 more time steps

Updating solution at time level N... done.
Injecting 1648 particle parcels with mass 2e-11 at t = 603.6

Advancing DPM injections ....
number tracked = 1020980, escaped = 428, aborted = 0, trapped = 1099, evaporated = 0, incomplete = 0, incomplete_parallel = 0

  iter     time/iter
  step  flow-time  volflow_or  volflow_in volflow_cor     temp_p1    temp_max pressure_or pressure_dif pressure_cor mass_balance heat_balance      dpm_p2      dpm_or     dpm_cor
  3019  6.0380e+02 -2.1069e+00  2.1019e+00 -1.0800e-01  2.9403e+02  3.6572e+02  6.0214e+00  6.0188e+00  2.6176e-03  8.0311e-08  7.3231e-02  0.0000e+00  0.0000e+00  1.8452e-10
Flow time = 603.8s, time step = 3019
2981 more time steps

Updating solution at time level N... done.
Injecting 1648 particle parcels with mass 2e-11 at t = 603.8

Advancing DPM injections ....
number tracked = 1021101, escaped = 434, aborted = 0, trapped = 1199, evaporated = 0, incomplete = 0, incomplete_parallel = 0

  iter     time/iter
/file/read-macros controlruntime.scm
Loading "././controlruntime.scm"
/solve/execute-commands add-edit control-run-time Editing control-run-time
10 
Options: "iteration" "time-step"
"time-step"  "/file/read-macros controlruntime.scm"  Done.

> 
  step  flow-time  volflow_or  volflow_in volflow_cor     temp_p1    temp_max pressure_or pressure_dif pressure_cor mass_balance heat_balance      dpm_p2      dpm_or     dpm_cor
  3020  6.0400e+02 -2.1069e+00  2.1019e+00 -1.0800e-01  2.9403e+02  3.6572e+02  6.0214e+00  6.0188e+00  2.6176e-03  8.0311e-08  7.3231e-02  0.0000e+00  0.0000e+00  1.8452e-10
Flow time = 604s, time step = 3020
2980 more time steps

Updating solution at time level N... done.
Injecting 1648 particle parcels with mass 2e-11 at t = 604

Advancing DPM injections ....
number tracked = 1021116, escaped = 436, aborted = 0, trapped = 1113, evaporated = 0, incomplete = 0, incomplete_parallel = 0

  iter     time/iter
  step  flow-time  volflow_or  volflow_in volflow_cor     temp_p1    temp_max pressure_or pressure_dif pressure_cor mass_balance heat_balance      dpm_p2      dpm_or     dpm_cor
  3021  6.0420e+02 -2.1069e+00  2.1019e+00 -1.0800e-01  2.9403e+02  3.6572e+02  6.0214e+00  6.0188e+00  2.6176e-03  8.0311e-08  7.3231e-02  0.0000e+00  0.0000e+00  1.8454e-10
Flow time = 604.2s, time step = 3021
2979 more time steps

Updating solution at time level N... done.
Injecting 1648 particle parcels with mass 2e-11 at t = 604.2

Advancing DPM injections ....
number tracked = 1021215, escaped = 427, aborted = 0, trapped = 1149, evaporated = 0, incomplete = 0, incomplete_parallel = 0

  iter     time/iter
  step  flow-time  volflow_or  volflow_in volflow_cor     temp_p1    temp_max pressure_or pressure_dif pressure_cor mass_balance heat_balance      dpm_p2      dpm_or     dpm_cor
  3022  6.0440e+02 -2.1069e+00  2.1019e+00 -1.0800e-01  2.9403e+02  3.6572e+02  6.0214e+00  6.0188e+00  2.6176e-03  8.0311e-08  7.3231e-02  0.0000e+00  0.0000e+00  1.8455e-10
Flow time = 604.4s, time step = 3022
2978 more time steps

Updating solution at time level N... done.
Injecting 1648 particle parcels with mass 2e-11 at t = 604.4

Advancing DPM injections ....
number tracked = 1021287, escaped = 446, aborted = 0, trapped = 1229, evaporated = 0, incomplete = 0, incomplete_parallel = 0

  iter     time/iter
  step  flow-time  volflow_or  volflow_in volflow_cor     temp_p1    temp_max pressure_or pressure_dif pressure_cor mass_balance heat_balance      dpm_p2      dpm_or     dpm_cor
  3023  6.0460e+02 -2.1069e+00  2.1019e+00 -1.0800e-01  2.9403e+02  3.6572e+02  6.0214e+00  6.0188e+00  2.6176e-03  8.0311e-08  7.3231e-02  0.0000e+00  0.0000e+00  1.8455e-10
Flow time = 604.6s, time step = 3023
2977 more time steps

Updating solution at time level N... done.
Injecting 1648 particle parcels with mass 2e-11 at t = 604.6

Advancing DPM injections ....
number tracked = 1021260, escaped = 421, aborted = 0, trapped = 1183, evaporated = 0, incomplete = 0, incomplete_parallel = 0

  iter     time/iter
  step  flow-time  volflow_or  volflow_in volflow_cor     temp_p1    temp_max pressure_or pressure_dif pressure_cor mass_balance heat_balance      dpm_p2      dpm_or     dpm_cor
  3024  6.0480e+02 -2.1069e+00  2.1019e+00 -1.0800e-01  2.9403e+02  3.6572e+02  6.0214e+00  6.0188e+00  2.6176e-03  8.0311e-08  7.3231e-02  0.0000e+00  0.0000e+00  1.8456e-10
Flow time = 604.8s, time step = 3024
2976 more time steps

Updating solution at time level N... done.
Injecting 1648 particle parcels with mass 2e-11 at t = 604.8

Advancing DPM injections ....
number tracked = 1021304, escaped = 434, aborted = 0, trapped = 1197, evaporated = 0, incomplete = 0, incomplete_parallel = 0

  iter     time/iter
  step  flow-time  volflow_or  volflow_in volflow_cor     temp_p1    temp_max pressure_or pressure_dif pressure_cor mass_balance heat_balance      dpm_p2      dpm_or     dpm_cor
  3025  6.0500e+02 -2.1069e+00  2.1019e+00 -1.0800e-01  2.9403e+02  3.6572e+02  6.0214e+00  6.0188e+00  2.6176e-03  8.0311e-08  7.3231e-02  0.0000e+00  0.0000e+00  1.8456e-10
Flow time = 605s, time step = 3025
2975 more time steps

Updating solution at time level N... done.
Injecting 1648 particle parcels with mass 2e-11 at t = 605

Advancing DPM injections ....
number tracked = 1021321, escaped = 429, aborted = 0, trapped = 1138, evaporated = 0, incomplete = 0, incomplete_parallel = 0

  iter     time/iter
  step  flow-time  volflow_or  volflow_in volflow_cor     temp_p1    temp_max pressure_or pressure_dif pressure_cor mass_balance heat_balance      dpm_p2      dpm_or     dpm_cor
  3026  6.0520e+02 -2.1069e+00  2.1019e+00 -1.0800e-01  2.9403e+02  3.6572e+02  6.0214e+00  6.0188e+00  2.6176e-03  8.0311e-08  7.3231e-02  0.0000e+00  0.0000e+00  1.8457e-10
Flow time = 605.2s, time step = 3026
2974 more time steps

Updating solution at time level N... done.
Injecting 1648 particle parcels with mass 2e-11 at t = 605.2

Advancing DPM injections ....
number tracked = 1021402, escaped = 465, aborted = 0, trapped = 1184, evaporated = 0, incomplete = 0, incomplete_parallel = 0

  iter     time/iter
  step  flow-time  volflow_or  volflow_in volflow_cor     temp_p1    temp_max pressure_or pressure_dif pressure_cor mass_balance heat_balance      dpm_p2      dpm_or     dpm_cor
  3027  6.0540e+02 -2.1069e+00  2.1019e+00 -1.0800e-01  2.9403e+02  3.6572e+02  6.0214e+00  6.0188e+00  2.6176e-03  8.0311e-08  7.3231e-02  0.0000e+00  0.0000e+00  1.8458e-10
Flow time = 605.4s, time step = 3027
2973 more time steps

Updating solution at time level N... done.
Injecting 1648 particle parcels with mass 2e-11 at t = 605.4

Advancing DPM injections ....
number tracked = 1021401, escaped = 386, aborted = 0, trapped = 1168, evaporated = 0, incomplete = 0, incomplete_parallel = 0

  iter     time/iter
  step  flow-time  volflow_or  volflow_in volflow_cor     temp_p1    temp_max pressure_or pressure_dif pressure_cor mass_balance heat_balance      dpm_p2      dpm_or     dpm_cor
  3028  6.0560e+02 -2.1069e+00  2.1019e+00 -1.0800e-01  2.9403e+02  3.6572e+02  6.0214e+00  6.0188e+00  2.6176e-03  8.0311e-08  7.3231e-02  0.0000e+00  0.0000e+00  1.8459e-10
Flow time = 605.6s, time step = 3028
2972 more time steps

Updating solution at time level N... done.
Injecting 1648 particle parcels with mass 2e-11 at t = 605.6

Advancing DPM injections ....
number tracked = 1021495, escaped = 430, aborted = 0, trapped = 1214, evaporated = 0, incomplete = 0, incomplete_parallel = 0

  iter     time/iter
  step  flow-time  volflow_or  volflow_in volflow_cor     temp_p1    temp_max pressure_or pressure_dif pressure_cor mass_balance heat_balance      dpm_p2      dpm_or     dpm_cor
  3029  6.0580e+02 -2.1069e+00  2.1019e+00 -1.0800e-01  2.9403e+02  3.6572e+02  6.0214e+00  6.0188e+00  2.6176e-03  8.0311e-08  7.3231e-02  0.0000e+00  0.0000e+00  1.8460e-10
Flow time = 605.8s, time step = 3029
2971 more time steps

Updating solution at time level N... done.
Injecting 1648 particle parcels with mass 2e-11 at t = 605.8

Advancing DPM injections ....
number tracked = 1021499, escaped = 416, aborted = 0, trapped = 1193, evaporated = 0, incomplete = 0, incomplete_parallel = 0

  iter     time/iter
/file/read-macros controlruntime.scm
Loading "././controlruntime.scm"
/solve/execute-commands add-edit control-run-time Editing control-run-time
10 
Options: "iteration" "time-step"
"time-step"  "/file/read-macros controlruntime.scm"  Done.

> 
  step  flow-time  volflow_or  volflow_in volflow_cor     temp_p1    temp_max pressure_or pressure_dif pressure_cor mass_balance heat_balance      dpm_p2      dpm_or     dpm_cor
  3030  6.0600e+02 -2.1069e+00  2.1019e+00 -1.0800e-01  2.9403e+02  3.6572e+02  6.0214e+00  6.0188e+00  2.6176e-03  8.0311e-08  7.3231e-02  0.0000e+00  0.0000e+00  1.8460e-10
Flow time = 606s, time step = 3030
2970 more time steps

Updating solution at time level N... done.
Injecting 1648 particle parcels with mass 2e-11 at t = 606

Advancing DPM injections ....
number tracked = 1021538, escaped = 396, aborted = 0, trapped = 1256, evaporated = 0, incomplete = 0, incomplete_parallel = 0

  iter     time/iter
  step  flow-time  volflow_or  volflow_in volflow_cor     temp_p1    temp_max pressure_or pressure_dif pressure_cor mass_balance heat_balance      dpm_p2      dpm_or     dpm_cor
  3031  6.0620e+02 -2.1069e+00  2.1019e+00 -1.0800e-01  2.9403e+02  3.6572e+02  6.0214e+00  6.0188e+00  2.6176e-03  8.0311e-08  7.3231e-02  0.0000e+00  0.0000e+00  1.8460e-10
Flow time = 606.2s, time step = 3031
2969 more time steps

Updating solution at time level N... done.
Injecting 1648 particle parcels with mass 2e-11 at t = 606.2

Advancing DPM injections ....
number tracked = 1021534, escaped = 399, aborted = 0, trapped = 1216, evaporated = 0, incomplete = 0, incomplete_parallel = 0

  iter     time/iter
  step  flow-time  volflow_or  volflow_in volflow_cor     temp_p1    temp_max pressure_or pressure_dif pressure_cor mass_balance heat_balance      dpm_p2      dpm_or     dpm_cor
  3032  6.0640e+02 -2.1069e+00  2.1019e+00 -1.0800e-01  2.9403e+02  3.6572e+02  6.0214e+00  6.0188e+00  2.6176e-03  8.0311e-08  7.3231e-02  0.0000e+00  0.0000e+00  1.8461e-10
Flow time = 606.4s, time step = 3032
2968 more time steps

Updating solution at time level N... done.
Injecting 1648 particle parcels with mass 2e-11 at t = 606.4

Advancing DPM injections ....
number tracked = 1021567, escaped = 418, aborted = 0, trapped = 1178, evaporated = 0, incomplete = 0, incomplete_parallel = 0

  iter     time/iter
  step  flow-time  volflow_or  volflow_in volflow_cor     temp_p1    temp_max pressure_or pressure_dif pressure_cor mass_balance heat_balance      dpm_p2      dpm_or     dpm_cor
  3033  6.0660e+02 -2.1069e+00  2.1019e+00 -1.0800e-01  2.9403e+02  3.6572e+02  6.0214e+00  6.0188e+00  2.6176e-03  8.0311e-08  7.3231e-02  0.0000e+00  0.0000e+00  1.8462e-10
Flow time = 606.6s, time step = 3033
2967 more time steps

Updating solution at time level N... done.
Injecting 1648 particle parcels with mass 2e-11 at t = 606.6

Advancing DPM injections ....
number tracked = 1021619, escaped = 449, aborted = 0, trapped = 1130, evaporated = 0, incomplete = 0, incomplete_parallel = 0

  iter     time/iter
  step  flow-time  volflow_or  volflow_in volflow_cor     temp_p1    temp_max pressure_or pressure_dif pressure_cor mass_balance heat_balance      dpm_p2      dpm_or     dpm_cor
  3034  6.0680e+02 -2.1069e+00  2.1019e+00 -1.0800e-01  2.9403e+02  3.6572e+02  6.0214e+00  6.0188e+00  2.6176e-03  8.0311e-08  7.3231e-02  0.0000e+00  0.0000e+00  1.8463e-10
Flow time = 606.8s, time step = 3034
2966 more time steps

Updating solution at time level N... done.
Injecting 1648 particle parcels with mass 2e-11 at t = 606.8

Advancing DPM injections ....
number tracked = 1021688, escaped = 436, aborted = 0, trapped = 1165, evaporated = 0, incomplete = 0, incomplete_parallel = 0

  iter     time/iter
  step  flow-time  volflow_or  volflow_in volflow_cor     temp_p1    temp_max pressure_or pressure_dif pressure_cor mass_balance heat_balance      dpm_p2      dpm_or     dpm_cor
  3035  6.0700e+02 -2.1069e+00  2.1019e+00 -1.0800e-01  2.9403e+02  3.6572e+02  6.0214e+00  6.0188e+00  2.6176e-03  8.0311e-08  7.3231e-02  0.0000e+00  0.0000e+00  1.8464e-10
Flow time = 607s, time step = 3035
2965 more time steps

Updating solution at time level N... done.
Injecting 1648 particle parcels with mass 2e-11 at t = 607

Advancing DPM injections ....
number tracked = 1021735, escaped = 423, aborted = 0, trapped = 1158, evaporated = 0, incomplete = 0, incomplete_parallel = 0

  iter     time/iter
  step  flow-time  volflow_or  volflow_in volflow_cor     temp_p1    temp_max pressure_or pressure_dif pressure_cor mass_balance heat_balance      dpm_p2      dpm_or     dpm_cor
  3036  6.0720e+02 -2.1069e+00  2.1019e+00 -1.0800e-01  2.9403e+02  3.6572e+02  6.0214e+00  6.0188e+00  2.6176e-03  8.0311e-08  7.3231e-02  0.0000e+00  0.0000e+00  1.8465e-10
Flow time = 607.2s, time step = 3036
2964 more time steps

Updating solution at time level N... done.
Injecting 1648 particle parcels with mass 2e-11 at t = 607.2

Advancing DPM injections ....
number tracked = 1021802, escaped = 412, aborted = 0, trapped = 1237, evaporated = 0, incomplete = 0, incomplete_parallel = 0

  iter     time/iter
  step  flow-time  volflow_or  volflow_in volflow_cor     temp_p1    temp_max pressure_or pressure_dif pressure_cor mass_balance heat_balance      dpm_p2      dpm_or     dpm_cor
  3037  6.0740e+02 -2.1069e+00  2.1019e+00 -1.0800e-01  2.9403e+02  3.6572e+02  6.0214e+00  6.0188e+00  2.6176e-03  8.0311e-08  7.3231e-02  0.0000e+00  0.0000e+00  1.8465e-10
Flow time = 607.4s, time step = 3037
2963 more time steps

Updating solution at time level N... done.
Injecting 1648 particle parcels with mass 2e-11 at t = 607.4

Advancing DPM injections ....
number tracked = 1021801, escaped = 412, aborted = 0, trapped = 1159, evaporated = 0, incomplete = 0, incomplete_parallel = 0

  iter     time/iter
  step  flow-time  volflow_or  volflow_in volflow_cor     temp_p1    temp_max pressure_or pressure_dif pressure_cor mass_balance heat_balance      dpm_p2      dpm_or     dpm_cor
  3038  6.0760e+02 -2.1069e+00  2.1019e+00 -1.0800e-01  2.9403e+02  3.6572e+02  6.0214e+00  6.0188e+00  2.6176e-03  8.0311e-08  7.3231e-02  0.0000e+00  0.0000e+00  1.8466e-10
Flow time = 607.6s, time step = 3038
2962 more time steps

Updating solution at time level N... done.
Injecting 1648 particle parcels with mass 2e-11 at t = 607.6

Advancing DPM injections ....
number tracked = 1021878, escaped = 371, aborted = 0, trapped = 1247, evaporated = 0, incomplete = 0, incomplete_parallel = 0

  iter     time/iter
  step  flow-time  volflow_or  volflow_in volflow_cor     temp_p1    temp_max pressure_or pressure_dif pressure_cor mass_balance heat_balance      dpm_p2      dpm_or     dpm_cor
  3039  6.0780e+02 -2.1069e+00  2.1019e+00 -1.0800e-01  2.9403e+02  3.6572e+02  6.0214e+00  6.0188e+00  2.6176e-03  8.0311e-08  7.3231e-02  0.0000e+00  0.0000e+00  1.8467e-10
Flow time = 607.8s, time step = 3039
2961 more time steps

Updating solution at time level N... done.
Injecting 1648 particle parcels with mass 2e-11 at t = 607.8

Advancing DPM injections ....
number tracked = 1021908, escaped = 380, aborted = 0, trapped = 1186, evaporated = 0, incomplete = 0, incomplete_parallel = 0

  iter     time/iter
/file/read-macros controlruntime.scm
Loading "././controlruntime.scm"
/solve/execute-commands add-edit control-run-time Editing control-run-time
10 
Options: "iteration" "time-step"
"time-step"  "/file/read-macros controlruntime.scm"  Done.

> 
  step  flow-time  volflow_or  volflow_in volflow_cor     temp_p1    temp_max pressure_or pressure_dif pressure_cor mass_balance heat_balance      dpm_p2      dpm_or     dpm_cor
  3040  6.0800e+02 -2.1069e+00  2.1019e+00 -1.0800e-01  2.9403e+02  3.6572e+02  6.0214e+00  6.0188e+00  2.6176e-03  8.0311e-08  7.3231e-02  0.0000e+00  0.0000e+00  1.8468e-10
Flow time = 608s, time step = 3040
2960 more time steps

Updating solution at time level N... done.
Injecting 1648 particle parcels with mass 2e-11 at t = 608

Advancing DPM injections ....
number tracked = 1021990, escaped = 456, aborted = 0, trapped = 1210, evaporated = 0, incomplete = 0, incomplete_parallel = 0

  iter     time/iter
  step  flow-time  volflow_or  volflow_in volflow_cor     temp_p1    temp_max pressure_or pressure_dif pressure_cor mass_balance heat_balance      dpm_p2      dpm_or     dpm_cor
  3041  6.0820e+02 -2.1069e+00  2.1019e+00 -1.0800e-01  2.9403e+02  3.6572e+02  6.0214e+00  6.0188e+00  2.6176e-03  8.0311e-08  7.3231e-02  0.0000e+00  0.0000e+00  1.8469e-10
Flow time = 608.2s, time step = 3041
2959 more time steps

Updating solution at time level N... done.
Injecting 1648 particle parcels with mass 2e-11 at t = 608.2

Advancing DPM injections ....
number tracked = 1021972, escaped = 405, aborted = 0, trapped = 1163, evaporated = 0, incomplete = 0, incomplete_parallel = 0

  iter     time/iter
  step  flow-time  volflow_or  volflow_in volflow_cor     temp_p1    temp_max pressure_or pressure_dif pressure_cor mass_balance heat_balance      dpm_p2      dpm_or     dpm_cor
  3042  6.0840e+02 -2.1069e+00  2.1019e+00 -1.0800e-01  2.9403e+02  3.6572e+02  6.0214e+00  6.0188e+00  2.6176e-03  8.0311e-08  7.3231e-02  0.0000e+00  0.0000e+00  1.8469e-10
Flow time = 608.4s, time step = 3042
2958 more time steps

Updating solution at time level N... done.
Injecting 1648 particle parcels with mass 2e-11 at t = 608.4

Advancing DPM injections ....
number tracked = 1022052, escaped = 433, aborted = 0, trapped = 1219, evaporated = 0, incomplete = 0, incomplete_parallel = 0

  iter     time/iter
  step  flow-time  volflow_or  volflow_in volflow_cor     temp_p1    temp_max pressure_or pressure_dif pressure_cor mass_balance heat_balance      dpm_p2      dpm_or     dpm_cor
  3043  6.0860e+02 -2.1069e+00  2.1019e+00 -1.0800e-01  2.9403e+02  3.6572e+02  6.0214e+00  6.0188e+00  2.6176e-03  8.0311e-08  7.3231e-02  0.0000e+00  0.0000e+00  1.8469e-10
Flow time = 608.6s, time step = 3043
2957 more time steps

Updating solution at time level N... done.
Injecting 1648 particle parcels with mass 2e-11 at t = 608.6

Advancing DPM injections ....
number tracked = 1022048, escaped = 430, aborted = 0, trapped = 1184, evaporated = 0, incomplete = 0, incomplete_parallel = 0

  iter     time/iter
  step  flow-time  volflow_or  volflow_in volflow_cor     temp_p1    temp_max pressure_or pressure_dif pressure_cor mass_balance heat_balance      dpm_p2      dpm_or     dpm_cor
  3044  6.0880e+02 -2.1069e+00  2.1019e+00 -1.0800e-01  2.9403e+02  3.6572e+02  6.0214e+00  6.0188e+00  2.6176e-03  8.0311e-08  7.3231e-02  0.0000e+00  0.0000e+00  1.8470e-10
Flow time = 608.8s, time step = 3044
2956 more time steps

Updating solution at time level N... done.
Injecting 1648 particle parcels with mass 2e-11 at t = 608.8

Advancing DPM injections ....
number tracked = 1022082, escaped = 438, aborted = 0, trapped = 1175, evaporated = 0, incomplete = 0, incomplete_parallel = 0

  iter     time/iter
  step  flow-time  volflow_or  volflow_in volflow_cor     temp_p1    temp_max pressure_or pressure_dif pressure_cor mass_balance heat_balance      dpm_p2      dpm_or     dpm_cor
  3045  6.0900e+02 -2.1069e+00  2.1019e+00 -1.0800e-01  2.9403e+02  3.6572e+02  6.0214e+00  6.0188e+00  2.6176e-03  8.0311e-08  7.3231e-02  0.0000e+00  0.0000e+00  1.8471e-10
Flow time = 609s, time step = 3045
2955 more time steps

Updating solution at time level N... done.
Injecting 1648 particle parcels with mass 2e-11 at t = 609

Advancing DPM injections ....
number tracked = 1022117, escaped = 443, aborted = 0, trapped = 1183, evaporated = 0, incomplete = 0, incomplete_parallel = 0

  iter     time/iter
  step  flow-time  volflow_or  volflow_in volflow_cor     temp_p1    temp_max pressure_or pressure_dif pressure_cor mass_balance heat_balance      dpm_p2      dpm_or     dpm_cor
  3046  6.0920e+02 -2.1069e+00  2.1019e+00 -1.0800e-01  2.9403e+02  3.6572e+02  6.0214e+00  6.0188e+00  2.6176e-03  8.0311e-08  7.3231e-02  0.0000e+00  0.0000e+00  1.8471e-10
Flow time = 609.2s, time step = 3046
2954 more time steps

Updating solution at time level N... done.
Injecting 1648 particle parcels with mass 2e-11 at t = 609.2

Advancing DPM injections ....
number tracked = 1022139, escaped = 422, aborted = 0, trapped = 1210, evaporated = 0, incomplete = 0, incomplete_parallel = 0

  iter     time/iter
  step  flow-time  volflow_or  volflow_in volflow_cor     temp_p1    temp_max pressure_or pressure_dif pressure_cor mass_balance heat_balance      dpm_p2      dpm_or     dpm_cor
  3047  6.0940e+02 -2.1069e+00  2.1019e+00 -1.0800e-01  2.9403e+02  3.6572e+02  6.0214e+00  6.0188e+00  2.6176e-03  8.0311e-08  7.3231e-02  0.0000e+00  0.0000e+00  1.8472e-10
Flow time = 609.4s, time step = 3047
2953 more time steps

Updating solution at time level N... done.
Injecting 1648 particle parcels with mass 2e-11 at t = 609.4

Advancing DPM injections ....
number tracked = 1022155, escaped = 421, aborted = 0, trapped = 1202, evaporated = 0, incomplete = 0, incomplete_parallel = 0

  iter     time/iter
  step  flow-time  volflow_or  volflow_in volflow_cor     temp_p1    temp_max pressure_or pressure_dif pressure_cor mass_balance heat_balance      dpm_p2      dpm_or     dpm_cor
  3048  6.0960e+02 -2.1069e+00  2.1019e+00 -1.0800e-01  2.9403e+02  3.6572e+02  6.0214e+00  6.0188e+00  2.6176e-03  8.0311e-08  7.3231e-02  0.0000e+00  0.0000e+00  1.8471e-10
Flow time = 609.6s, time step = 3048
2952 more time steps

Updating solution at time level N... done.
Injecting 1648 particle parcels with mass 2e-11 at t = 609.6

Advancing DPM injections ....
number tracked = 1022180, escaped = 413, aborted = 0, trapped = 1193, evaporated = 0, incomplete = 0, incomplete_parallel = 0

  iter     time/iter
  step  flow-time  volflow_or  volflow_in volflow_cor     temp_p1    temp_max pressure_or pressure_dif pressure_cor mass_balance heat_balance      dpm_p2      dpm_or     dpm_cor
  3049  6.0980e+02 -2.1069e+00  2.1019e+00 -1.0800e-01  2.9403e+02  3.6572e+02  6.0214e+00  6.0188e+00  2.6176e-03  8.0311e-08  7.3231e-02  0.0000e+00  0.0000e+00  1.8472e-10
Flow time = 609.8s, time step = 3049
2951 more time steps

Updating solution at time level N... done.
Injecting 1648 particle parcels with mass 2e-11 at t = 609.8

Advancing DPM injections ....
number tracked = 1022222, escaped = 416, aborted = 0, trapped = 1137, evaporated = 0, incomplete = 0, incomplete_parallel = 0

  iter     time/iter
/file/read-macros controlruntime.scm
Loading "././controlruntime.scm"
/solve/execute-commands add-edit control-run-time Editing control-run-time
10 
Options: "iteration" "time-step"
"time-step"  "/file/read-macros controlruntime.scm"  Done.

> 
  step  flow-time  volflow_or  volflow_in volflow_cor     temp_p1    temp_max pressure_or pressure_dif pressure_cor mass_balance heat_balance      dpm_p2      dpm_or     dpm_cor
  3050  6.1000e+02 -2.1069e+00  2.1019e+00 -1.0800e-01  2.9403e+02  3.6572e+02  6.0214e+00  6.0188e+00  2.6176e-03  8.0311e-08  7.3231e-02  0.0000e+00  0.0000e+00  1.8474e-10
Flow time = 610s, time step = 3050
2950 more time steps

Updating solution at time level N... done.
Injecting 1648 particle parcels with mass 2e-11 at t = 610

Advancing DPM injections ....
number tracked = 1022317, escaped = 438, aborted = 0, trapped = 1174, evaporated = 0, incomplete = 0, incomplete_parallel = 0

  iter     time/iter
  step  flow-time  volflow_or  volflow_in volflow_cor     temp_p1    temp_max pressure_or pressure_dif pressure_cor mass_balance heat_balance      dpm_p2      dpm_or     dpm_cor
  3051  6.1020e+02 -2.1069e+00  2.1019e+00 -1.0800e-01  2.9403e+02  3.6572e+02  6.0214e+00  6.0188e+00  2.6176e-03  8.0311e-08  7.3231e-02  0.0000e+00  0.0000e+00  1.8475e-10
Flow time = 610.2s, time step = 3051
2949 more time steps

Updating solution at time level N... done.
Injecting 1648 particle parcels with mass 2e-11 at t = 610.2

Advancing DPM injections ....
number tracked = 1022353, escaped = 421, aborted = 0, trapped = 1225, evaporated = 0, incomplete = 0, incomplete_parallel = 0

  iter     time/iter
  step  flow-time  volflow_or  volflow_in volflow_cor     temp_p1    temp_max pressure_or pressure_dif pressure_cor mass_balance heat_balance      dpm_p2      dpm_or     dpm_cor
  3052  6.1040e+02 -2.1069e+00  2.1019e+00 -1.0800e-01  2.9403e+02  3.6572e+02  6.0214e+00  6.0188e+00  2.6176e-03  8.0311e-08  7.3231e-02  0.0000e+00  0.0000e+00  1.8475e-10
Flow time = 610.4s, time step = 3052
2948 more time steps

Updating solution at time level N... done.
Injecting 1648 particle parcels with mass 2e-11 at t = 610.4

Advancing DPM injections ....
number tracked = 1022355, escaped = 446, aborted = 0, trapped = 1178, evaporated = 0, incomplete = 0, incomplete_parallel = 0

  iter     time/iter
  step  flow-time  volflow_or  volflow_in volflow_cor     temp_p1    temp_max pressure_or pressure_dif pressure_cor mass_balance heat_balance      dpm_p2      dpm_or     dpm_cor
  3053  6.1060e+02 -2.1069e+00  2.1019e+00 -1.0800e-01  2.9403e+02  3.6572e+02  6.0214e+00  6.0188e+00  2.6176e-03  8.0311e-08  7.3231e-02  0.0000e+00  0.0000e+00  1.8476e-10
Flow time = 610.6s, time step = 3053
2947 more time steps

Updating solution at time level N... done.
Injecting 1648 particle parcels with mass 2e-11 at t = 610.6

Advancing DPM injections ....
number tracked = 1022379, escaped = 402, aborted = 0, trapped = 1196, evaporated = 0, incomplete = 0, incomplete_parallel = 0

  iter     time/iter
  step  flow-time  volflow_or  volflow_in volflow_cor     temp_p1    temp_max pressure_or pressure_dif pressure_cor mass_balance heat_balance      dpm_p2      dpm_or     dpm_cor
  3054  6.1080e+02 -2.1069e+00  2.1019e+00 -1.0800e-01  2.9403e+02  3.6572e+02  6.0214e+00  6.0188e+00  2.6176e-03  8.0311e-08  7.3231e-02  0.0000e+00  0.0000e+00  1.8476e-10
Flow time = 610.8s, time step = 3054
2946 more time steps

Updating solution at time level N... done.
Injecting 1648 particle parcels with mass 2e-11 at t = 610.8

Advancing DPM injections ....
number tracked = 1022429, escaped = 453, aborted = 0, trapped = 1192, evaporated = 0, incomplete = 0, incomplete_parallel = 0

  iter     time/iter
  step  flow-time  volflow_or  volflow_in volflow_cor     temp_p1    temp_max pressure_or pressure_dif pressure_cor mass_balance heat_balance      dpm_p2      dpm_or     dpm_cor
  3055  6.1100e+02 -2.1069e+00  2.1019e+00 -1.0800e-01  2.9403e+02  3.6572e+02  6.0214e+00  6.0188e+00  2.6176e-03  8.0311e-08  7.3231e-02  0.0000e+00  0.0000e+00  1.8476e-10
Flow time = 611s, time step = 3055
2945 more time steps

Updating solution at time level N... done.
Injecting 1648 particle parcels with mass 2e-11 at t = 611

Advancing DPM injections ....
number tracked = 1022432, escaped = 421, aborted = 0, trapped = 1194, evaporated = 0, incomplete = 0, incomplete_parallel = 0

  iter     time/iter
  step  flow-time  volflow_or  volflow_in volflow_cor     temp_p1    temp_max pressure_or pressure_dif pressure_cor mass_balance heat_balance      dpm_p2      dpm_or     dpm_cor
  3056  6.1120e+02 -2.1069e+00  2.1019e+00 -1.0800e-01  2.9403e+02  3.6572e+02  6.0214e+00  6.0188e+00  2.6176e-03  8.0311e-08  7.3231e-02  0.0000e+00  0.0000e+00  1.8477e-10
Flow time = 611.2s, time step = 3056
2944 more time steps

Updating solution at time level N... done.
Injecting 1648 particle parcels with mass 2e-11 at t = 611.2

Advancing DPM injections ....
number tracked = 1022465, escaped = 416, aborted = 0, trapped = 1180, evaporated = 0, incomplete = 0, incomplete_parallel = 0

  iter     time/iter
  step  flow-time  volflow_or  volflow_in volflow_cor     temp_p1    temp_max pressure_or pressure_dif pressure_cor mass_balance heat_balance      dpm_p2      dpm_or     dpm_cor
  3057  6.1140e+02 -2.1069e+00  2.1019e+00 -1.0800e-01  2.9403e+02  3.6572e+02  6.0214e+00  6.0188e+00  2.6176e-03  8.0311e-08  7.3231e-02  0.0000e+00  0.0000e+00  1.8477e-10
Flow time = 611.4s, time step = 3057
2943 more time steps

Updating solution at time level N... done.
Injecting 1648 particle parcels with mass 2e-11 at t = 611.4

Advancing DPM injections ....
number tracked = 1022517, escaped = 398, aborted = 0, trapped = 1150, evaporated = 0, incomplete = 0, incomplete_parallel = 0

  iter     time/iter
  step  flow-time  volflow_or  volflow_in volflow_cor     temp_p1    temp_max pressure_or pressure_dif pressure_cor mass_balance heat_balance      dpm_p2      dpm_or     dpm_cor
  3058  6.1160e+02 -2.1069e+00  2.1019e+00 -1.0800e-01  2.9403e+02  3.6572e+02  6.0214e+00  6.0188e+00  2.6176e-03  8.0311e-08  7.3231e-02  0.0000e+00  0.0000e+00  1.8479e-10
Flow time = 611.6s, time step = 3058
2942 more time steps

Updating solution at time level N... done.
Injecting 1648 particle parcels with mass 2e-11 at t = 611.6

Advancing DPM injections ....
number tracked = 1022617, escaped = 407, aborted = 0, trapped = 1118, evaporated = 0, incomplete = 0, incomplete_parallel = 0

  iter     time/iter
  step  flow-time  volflow_or  volflow_in volflow_cor     temp_p1    temp_max pressure_or pressure_dif pressure_cor mass_balance heat_balance      dpm_p2      dpm_or     dpm_cor
  3059  6.1180e+02 -2.1069e+00  2.1019e+00 -1.0800e-01  2.9403e+02  3.6572e+02  6.0214e+00  6.0188e+00  2.6176e-03  8.0311e-08  7.3231e-02  0.0000e+00  0.0000e+00  1.8481e-10
Flow time = 611.8s, time step = 3059
2941 more time steps

Updating solution at time level N... done.
Injecting 1648 particle parcels with mass 2e-11 at t = 611.8

Advancing DPM injections ....
number tracked = 1022740, escaped = 402, aborted = 0, trapped = 1144, evaporated = 0, incomplete = 0, incomplete_parallel = 0

  iter     time/iter
/file/read-macros controlruntime.scm
Loading "././controlruntime.scm"
/solve/execute-commands add-edit control-run-time Editing control-run-time
10 
Options: "iteration" "time-step"
"time-step"  "/file/read-macros controlruntime.scm"  Done.

> 
  step  flow-time  volflow_or  volflow_in volflow_cor     temp_p1    temp_max pressure_or pressure_dif pressure_cor mass_balance heat_balance      dpm_p2      dpm_or     dpm_cor
  3060  6.1200e+02 -2.1069e+00  2.1019e+00 -1.0800e-01  2.9403e+02  3.6572e+02  6.0214e+00  6.0188e+00  2.6176e-03  8.0311e-08  7.3231e-02  0.0000e+00  0.0000e+00  1.8483e-10
Flow time = 612s, time step = 3060
2940 more time steps

Updating solution at time level N... done.
Injecting 1648 particle parcels with mass 2e-11 at t = 612

Advancing DPM injections ....
number tracked = 1022842, escaped = 409, aborted = 0, trapped = 1188, evaporated = 0, incomplete = 0, incomplete_parallel = 0

  iter     time/iter
  step  flow-time  volflow_or  volflow_in volflow_cor     temp_p1    temp_max pressure_or pressure_dif pressure_cor mass_balance heat_balance      dpm_p2      dpm_or     dpm_cor
  3061  6.1220e+02 -2.1069e+00  2.1019e+00 -1.0800e-01  2.9403e+02  3.6572e+02  6.0214e+00  6.0188e+00  2.6176e-03  8.0311e-08  7.3231e-02  0.0000e+00  0.0000e+00  1.8484e-10
Flow time = 612.2s, time step = 3061
2939 more time steps

Updating solution at time level N... done.
Injecting 1648 particle parcels with mass 2e-11 at t = 612.2

Advancing DPM injections ....
number tracked = 1022893, escaped = 416, aborted = 0, trapped = 1215, evaporated = 0, incomplete = 0, incomplete_parallel = 0

  iter     time/iter
  step  flow-time  volflow_or  volflow_in volflow_cor     temp_p1    temp_max pressure_or pressure_dif pressure_cor mass_balance heat_balance      dpm_p2      dpm_or     dpm_cor
  3062  6.1240e+02 -2.1069e+00  2.1019e+00 -1.0800e-01  2.9403e+02  3.6572e+02  6.0214e+00  6.0188e+00  2.6176e-03  8.0311e-08  7.3231e-02  0.0000e+00  0.0000e+00  1.8484e-10
Flow time = 612.4s, time step = 3062
2938 more time steps

Updating solution at time level N... done.
Injecting 1648 particle parcels with mass 2e-11 at t = 612.4

Advancing DPM injections ....
number tracked = 1022910, escaped = 445, aborted = 0, trapped = 1228, evaporated = 0, incomplete = 0, incomplete_parallel = 0

  iter     time/iter
  step  flow-time  volflow_or  volflow_in volflow_cor     temp_p1    temp_max pressure_or pressure_dif pressure_cor mass_balance heat_balance      dpm_p2      dpm_or     dpm_cor
  3063  6.1260e+02 -2.1069e+00  2.1019e+00 -1.0800e-01  2.9403e+02  3.6572e+02  6.0214e+00  6.0188e+00  2.6176e-03  8.0311e-08  7.3231e-02  0.0000e+00  0.0000e+00  1.8484e-10
Flow time = 612.6s, time step = 3063
2937 more time steps

Updating solution at time level N... done.
Injecting 1648 particle parcels with mass 2e-11 at t = 612.6

Advancing DPM injections ....
number tracked = 1022885, escaped = 427, aborted = 0, trapped = 1147, evaporated = 0, incomplete = 0, incomplete_parallel = 0

  iter     time/iter
  step  flow-time  volflow_or  volflow_in volflow_cor     temp_p1    temp_max pressure_or pressure_dif pressure_cor mass_balance heat_balance      dpm_p2      dpm_or     dpm_cor
  3064  6.1280e+02 -2.1069e+00  2.1019e+00 -1.0800e-01  2.9403e+02  3.6572e+02  6.0214e+00  6.0188e+00  2.6176e-03  8.0311e-08  7.3231e-02  0.0000e+00  0.0000e+00  1.8485e-10
Flow time = 612.8s, time step = 3064
2936 more time steps

Updating solution at time level N... done.
Injecting 1648 particle parcels with mass 2e-11 at t = 612.8

Advancing DPM injections ....
number tracked = 1022959, escaped = 430, aborted = 0, trapped = 1247, evaporated = 0, incomplete = 0, incomplete_parallel = 0

  iter     time/iter
  step  flow-time  volflow_or  volflow_in volflow_cor     temp_p1    temp_max pressure_or pressure_dif pressure_cor mass_balance heat_balance      dpm_p2      dpm_or     dpm_cor
  3065  6.1300e+02 -2.1069e+00  2.1019e+00 -1.0800e-01  2.9403e+02  3.6572e+02  6.0214e+00  6.0188e+00  2.6176e-03  8.0311e-08  7.3231e-02  0.0000e+00  0.0000e+00  1.8485e-10
Flow time = 613s, time step = 3065
2935 more time steps

Updating solution at time level N... done.
Injecting 1648 particle parcels with mass 2e-11 at t = 613

Advancing DPM injections ....
number tracked = 1022930, escaped = 388, aborted = 0, trapped = 1182, evaporated = 0, incomplete = 0, incomplete_parallel = 0

  iter     time/iter
  step  flow-time  volflow_or  volflow_in volflow_cor     temp_p1    temp_max pressure_or pressure_dif pressure_cor mass_balance heat_balance      dpm_p2      dpm_or     dpm_cor
  3066  6.1320e+02 -2.1069e+00  2.1019e+00 -1.0800e-01  2.9403e+02  3.6572e+02  6.0214e+00  6.0188e+00  2.6176e-03  8.0311e-08  7.3231e-02  0.0000e+00  0.0000e+00  1.8486e-10
Flow time = 613.2s, time step = 3066
2934 more time steps

Updating solution at time level N... done.
Injecting 1648 particle parcels with mass 2e-11 at t = 613.2

Advancing DPM injections ....
number tracked = 1023008, escaped = 418, aborted = 0, trapped = 1166, evaporated = 0, incomplete = 0, incomplete_parallel = 0

  iter     time/iter
  step  flow-time  volflow_or  volflow_in volflow_cor     temp_p1    temp_max pressure_or pressure_dif pressure_cor mass_balance heat_balance      dpm_p2      dpm_or     dpm_cor
  3067  6.1340e+02 -2.1069e+00  2.1019e+00 -1.0800e-01  2.9403e+02  3.6572e+02  6.0214e+00  6.0188e+00  2.6176e-03  8.0311e-08  7.3231e-02  0.0000e+00  0.0000e+00  1.8488e-10
Flow time = 613.4s, time step = 3067
2933 more time steps

Updating solution at time level N... done.
Injecting 1648 particle parcels with mass 2e-11 at t = 613.4

Advancing DPM injections ....
number tracked = 1023072, escaped = 360, aborted = 0, trapped = 1272, evaporated = 0, incomplete = 0, incomplete_parallel = 0

  iter     time/iter
  step  flow-time  volflow_or  volflow_in volflow_cor     temp_p1    temp_max pressure_or pressure_dif pressure_cor mass_balance heat_balance      dpm_p2      dpm_or     dpm_cor
  3068  6.1360e+02 -2.1069e+00  2.1019e+00 -1.0800e-01  2.9403e+02  3.6572e+02  6.0214e+00  6.0188e+00  2.6176e-03  8.0311e-08  7.3231e-02  0.0000e+00  0.0000e+00  1.8488e-10
Flow time = 613.6s, time step = 3068
2932 more time steps

Updating solution at time level N... done.
Injecting 1648 particle parcels with mass 2e-11 at t = 613.6

Advancing DPM injections ....
number tracked = 1023088, escaped = 422, aborted = 0, trapped = 1147, evaporated = 0, incomplete = 0, incomplete_parallel = 0

  iter     time/iter
  step  flow-time  volflow_or  volflow_in volflow_cor     temp_p1    temp_max pressure_or pressure_dif pressure_cor mass_balance heat_balance      dpm_p2      dpm_or     dpm_cor
  3069  6.1380e+02 -2.1069e+00  2.1019e+00 -1.0800e-01  2.9403e+02  3.6572e+02  6.0214e+00  6.0188e+00  2.6176e-03  8.0311e-08  7.3231e-02  0.0000e+00  0.0000e+00  1.8489e-10
Flow time = 613.8s, time step = 3069
2931 more time steps

Updating solution at time level N... done.
Injecting 1648 particle parcels with mass 2e-11 at t = 613.8

Advancing DPM injections ....
number tracked = 1023167, escaped = 437, aborted = 0, trapped = 1204, evaporated = 0, incomplete = 0, incomplete_parallel = 0

  iter     time/iter
/file/read-macros controlruntime.scm
Loading "././controlruntime.scm"
/solve/execute-commands add-edit control-run-time Editing control-run-time
10 
Options: "iteration" "time-step"
"time-step"  "/file/read-macros controlruntime.scm"  Done.

> 
  step  flow-time  volflow_or  volflow_in volflow_cor     temp_p1    temp_max pressure_or pressure_dif pressure_cor mass_balance heat_balance      dpm_p2      dpm_or     dpm_cor
  3070  6.1400e+02 -2.1069e+00  2.1019e+00 -1.0800e-01  2.9403e+02  3.6572e+02  6.0214e+00  6.0188e+00  2.6176e-03  8.0311e-08  7.3231e-02  0.0000e+00  0.0000e+00  1.8490e-10
Flow time = 614s, time step = 3070
2930 more time steps

Updating solution at time level N... done.
Injecting 1648 particle parcels with mass 2e-11 at t = 614

Advancing DPM injections ....
number tracked = 1023174, escaped = 417, aborted = 0, trapped = 1144, evaporated = 0, incomplete = 0, incomplete_parallel = 0

  iter     time/iter
  step  flow-time  volflow_or  volflow_in volflow_cor     temp_p1    temp_max pressure_or pressure_dif pressure_cor mass_balance heat_balance      dpm_p2      dpm_or     dpm_cor
  3071  6.1420e+02 -2.1069e+00  2.1019e+00 -1.0800e-01  2.9403e+02  3.6572e+02  6.0214e+00  6.0188e+00  2.6176e-03  8.0311e-08  7.3231e-02  0.0000e+00  0.0000e+00  1.8491e-10
Flow time = 614.2s, time step = 3071
2929 more time steps

Updating solution at time level N... done.
Injecting 1648 particle parcels with mass 2e-11 at t = 614.2

Advancing DPM injections ....
number tracked = 1023261, escaped = 415, aborted = 0, trapped = 1157, evaporated = 0, incomplete = 0, incomplete_parallel = 0

  iter     time/iter
  step  flow-time  volflow_or  volflow_in volflow_cor     temp_p1    temp_max pressure_or pressure_dif pressure_cor mass_balance heat_balance      dpm_p2      dpm_or     dpm_cor
  3072  6.1440e+02 -2.1069e+00  2.1019e+00 -1.0800e-01  2.9403e+02  3.6572e+02  6.0214e+00  6.0188e+00  2.6176e-03  8.0311e-08  7.3231e-02  0.0000e+00  0.0000e+00  1.8492e-10
Flow time = 614.4s, time step = 3072
2928 more time steps

Updating solution at time level N... done.
Injecting 1648 particle parcels with mass 2e-11 at t = 614.4

Advancing DPM injections ....
number tracked = 1023337, escaped = 416, aborted = 0, trapped = 1200, evaporated = 0, incomplete = 0, incomplete_parallel = 0

  iter     time/iter
  step  flow-time  volflow_or  volflow_in volflow_cor     temp_p1    temp_max pressure_or pressure_dif pressure_cor mass_balance heat_balance      dpm_p2      dpm_or     dpm_cor
  3073  6.1460e+02 -2.1069e+00  2.1019e+00 -1.0800e-01  2.9403e+02  3.6572e+02  6.0214e+00  6.0188e+00  2.6176e-03  8.0311e-08  7.3231e-02  0.0000e+00  0.0000e+00  1.8493e-10
Flow time = 614.6s, time step = 3073
2927 more time steps

Updating solution at time level N... done.
Injecting 1648 particle parcels with mass 2e-11 at t = 614.6

Advancing DPM injections ....
number tracked = 1023369, escaped = 419, aborted = 0, trapped = 1152, evaporated = 0, incomplete = 0, incomplete_parallel = 0

  iter     time/iter
  step  flow-time  volflow_or  volflow_in volflow_cor     temp_p1    temp_max pressure_or pressure_dif pressure_cor mass_balance heat_balance      dpm_p2      dpm_or     dpm_cor
  3074  6.1480e+02 -2.1069e+00  2.1019e+00 -1.0800e-01  2.9403e+02  3.6572e+02  6.0214e+00  6.0188e+00  2.6176e-03  8.0311e-08  7.3231e-02  0.0000e+00  0.0000e+00  1.8495e-10
Flow time = 614.8s, time step = 3074
2926 more time steps

Updating solution at time level N... done.
Injecting 1648 particle parcels with mass 2e-11 at t = 614.8

Advancing DPM injections ....
number tracked = 1023446, escaped = 406, aborted = 0, trapped = 1218, evaporated = 0, incomplete = 0, incomplete_parallel = 0

  iter     time/iter
  step  flow-time  volflow_or  volflow_in volflow_cor     temp_p1    temp_max pressure_or pressure_dif pressure_cor mass_balance heat_balance      dpm_p2      dpm_or     dpm_cor
  3075  6.1500e+02 -2.1069e+00  2.1019e+00 -1.0800e-01  2.9403e+02  3.6572e+02  6.0214e+00  6.0188e+00  2.6176e-03  8.0311e-08  7.3231e-02  0.0000e+00  0.0000e+00  1.8495e-10
Flow time = 615s, time step = 3075
2925 more time steps

Updating solution at time level N... done.
Injecting 1648 particle parcels with mass 2e-11 at t = 615

Advancing DPM injections ....
number tracked = 1023470, escaped = 420, aborted = 0, trapped = 1224, evaporated = 0, incomplete = 0, incomplete_parallel = 0

  iter     time/iter
  step  flow-time  volflow_or  volflow_in volflow_cor     temp_p1    temp_max pressure_or pressure_dif pressure_cor mass_balance heat_balance      dpm_p2      dpm_or     dpm_cor
  3076  6.1520e+02 -2.1069e+00  2.1019e+00 -1.0800e-01  2.9403e+02  3.6572e+02  6.0214e+00  6.0188e+00  2.6176e-03  8.0311e-08  7.3231e-02  0.0000e+00  0.0000e+00  1.8495e-10
Flow time = 615.2s, time step = 3076
2924 more time steps

Updating solution at time level N... done.
Injecting 1648 particle parcels with mass 2e-11 at t = 615.2

Advancing DPM injections ....
number tracked = 1023474, escaped = 470, aborted = 0, trapped = 1149, evaporated = 0, incomplete = 0, incomplete_parallel = 0

  iter     time/iter
  step  flow-time  volflow_or  volflow_in volflow_cor     temp_p1    temp_max pressure_or pressure_dif pressure_cor mass_balance heat_balance      dpm_p2      dpm_or     dpm_cor
  3077  6.1540e+02 -2.1069e+00  2.1019e+00 -1.0800e-01  2.9403e+02  3.6572e+02  6.0214e+00  6.0188e+00  2.6176e-03  8.0311e-08  7.3231e-02  0.0000e+00  0.0000e+00  1.8495e-10
Flow time = 615.4s, time step = 3077
2923 more time steps

Updating solution at time level N... done.
Injecting 1648 particle parcels with mass 2e-11 at t = 615.4

Advancing DPM injections ....
number tracked = 1023503, escaped = 454, aborted = 0, trapped = 1243, evaporated = 0, incomplete = 0, incomplete_parallel = 0

  iter     time/iter
  step  flow-time  volflow_or  volflow_in volflow_cor     temp_p1    temp_max pressure_or pressure_dif pressure_cor mass_balance heat_balance      dpm_p2      dpm_or     dpm_cor
  3078  6.1560e+02 -2.1069e+00  2.1019e+00 -1.0800e-01  2.9403e+02  3.6572e+02  6.0214e+00  6.0188e+00  2.6176e-03  8.0311e-08  7.3231e-02  0.0000e+00  0.0000e+00  1.8495e-10
Flow time = 615.6s, time step = 3078
2922 more time steps

Updating solution at time level N... done.
Injecting 1648 particle parcels with mass 2e-11 at t = 615.6

Advancing DPM injections ....
number tracked = 1023454, escaped = 404, aborted = 0, trapped = 1190, evaporated = 0, incomplete = 0, incomplete_parallel = 0

  iter     time/iter
  step  flow-time  volflow_or  volflow_in volflow_cor     temp_p1    temp_max pressure_or pressure_dif pressure_cor mass_balance heat_balance      dpm_p2      dpm_or     dpm_cor
  3079  6.1580e+02 -2.1069e+00  2.1019e+00 -1.0800e-01  2.9403e+02  3.6572e+02  6.0214e+00  6.0188e+00  2.6176e-03  8.0311e-08  7.3231e-02  0.0000e+00  0.0000e+00  1.8495e-10
Flow time = 615.8s, time step = 3079
2921 more time steps

Updating solution at time level N... done.
Injecting 1648 particle parcels with mass 2e-11 at t = 615.8

Advancing DPM injections ....
number tracked = 1023508, escaped = 440, aborted = 0, trapped = 1274, evaporated = 0, incomplete = 0, incomplete_parallel = 0

  iter     time/iter
/file/read-macros controlruntime.scm
Loading "././controlruntime.scm"
/solve/execute-commands add-edit control-run-time Editing control-run-time
10 
Options: "iteration" "time-step"
"time-step"  "/file/read-macros controlruntime.scm"  Done.

> 
  step  flow-time  volflow_or  volflow_in volflow_cor     temp_p1    temp_max pressure_or pressure_dif pressure_cor mass_balance heat_balance      dpm_p2      dpm_or     dpm_cor
  3080  6.1600e+02 -2.1069e+00  2.1019e+00 -1.0800e-01  2.9403e+02  3.6572e+02  6.0214e+00  6.0188e+00  2.6176e-03  8.0311e-08  7.3231e-02  0.0000e+00  0.0000e+00  1.8494e-10
Flow time = 616s, time step = 3080
2920 more time steps

Updating solution at time level N... done.
Injecting 1648 particle parcels with mass 2e-11 at t = 616

Advancing DPM injections ....
number tracked = 1023442, escaped = 419, aborted = 0, trapped = 1213, evaporated = 0, incomplete = 0, incomplete_parallel = 0

  iter     time/iter
  step  flow-time  volflow_or  volflow_in volflow_cor     temp_p1    temp_max pressure_or pressure_dif pressure_cor mass_balance heat_balance      dpm_p2      dpm_or     dpm_cor
  3081  6.1620e+02 -2.1069e+00  2.1019e+00 -1.0800e-01  2.9403e+02  3.6572e+02  6.0214e+00  6.0188e+00  2.6176e-03  8.0311e-08  7.3231e-02  0.0000e+00  0.0000e+00  1.8494e-10
Flow time = 616.2s, time step = 3081
2919 more time steps

Updating solution at time level N... done.
Injecting 1648 particle parcels with mass 2e-11 at t = 616.2

Advancing DPM injections ....
number tracked = 1023458, escaped = 415, aborted = 0, trapped = 1217, evaporated = 0, incomplete = 0, incomplete_parallel = 0

  iter     time/iter
  step  flow-time  volflow_or  volflow_in volflow_cor     temp_p1    temp_max pressure_or pressure_dif pressure_cor mass_balance heat_balance      dpm_p2      dpm_or     dpm_cor
  3082  6.1640e+02 -2.1069e+00  2.1019e+00 -1.0800e-01  2.9403e+02  3.6572e+02  6.0214e+00  6.0188e+00  2.6176e-03  8.0311e-08  7.3231e-02  0.0000e+00  0.0000e+00  1.8494e-10
Flow time = 616.4s, time step = 3082
2918 more time steps

Updating solution at time level N... done.
Injecting 1648 particle parcels with mass 2e-11 at t = 616.4

Advancing DPM injections ....
number tracked = 1023474, escaped = 385, aborted = 0, trapped = 1191, evaporated = 0, incomplete = 0, incomplete_parallel = 0

  iter     time/iter
  step  flow-time  volflow_or  volflow_in volflow_cor     temp_p1    temp_max pressure_or pressure_dif pressure_cor mass_balance heat_balance      dpm_p2      dpm_or     dpm_cor
  3083  6.1660e+02 -2.1069e+00  2.1019e+00 -1.0800e-01  2.9403e+02  3.6572e+02  6.0214e+00  6.0188e+00  2.6176e-03  8.0311e-08  7.3231e-02  0.0000e+00  0.0000e+00  1.8495e-10
Flow time = 616.6s, time step = 3083
2917 more time steps

Updating solution at time level N... done.
Injecting 1648 particle parcels with mass 2e-11 at t = 616.6

Advancing DPM injections ....
number tracked = 1023546, escaped = 400, aborted = 0, trapped = 1207, evaporated = 0, incomplete = 0, incomplete_parallel = 0

  iter     time/iter
  step  flow-time  volflow_or  volflow_in volflow_cor     temp_p1    temp_max pressure_or pressure_dif pressure_cor mass_balance heat_balance      dpm_p2      dpm_or     dpm_cor
  3084  6.1680e+02 -2.1069e+00  2.1019e+00 -1.0800e-01  2.9403e+02  3.6572e+02  6.0214e+00  6.0188e+00  2.6176e-03  8.0311e-08  7.3231e-02  0.0000e+00  0.0000e+00  1.8496e-10
Flow time = 616.8s, time step = 3084
2916 more time steps

Updating solution at time level N... done.
Injecting 1648 particle parcels with mass 2e-11 at t = 616.8

Advancing DPM injections ....
number tracked = 1023587, escaped = 420, aborted = 0, trapped = 1216, evaporated = 0, incomplete = 0, incomplete_parallel = 0

  iter     time/iter
  step  flow-time  volflow_or  volflow_in volflow_cor     temp_p1    temp_max pressure_or pressure_dif pressure_cor mass_balance heat_balance      dpm_p2      dpm_or     dpm_cor
  3085  6.1700e+02 -2.1069e+00  2.1019e+00 -1.0800e-01  2.9403e+02  3.6572e+02  6.0214e+00  6.0188e+00  2.6176e-03  8.0311e-08  7.3231e-02  0.0000e+00  0.0000e+00  1.8497e-10
Flow time = 617s, time step = 3085
2915 more time steps

Updating solution at time level N... done.
Injecting 1648 particle parcels with mass 2e-11 at t = 617

Advancing DPM injections ....
number tracked = 1023599, escaped = 436, aborted = 0, trapped = 1203, evaporated = 0, incomplete = 0, incomplete_parallel = 0

  iter     time/iter
  step  flow-time  volflow_or  volflow_in volflow_cor     temp_p1    temp_max pressure_or pressure_dif pressure_cor mass_balance heat_balance      dpm_p2      dpm_or     dpm_cor
  3086  6.1720e+02 -2.1069e+00  2.1019e+00 -1.0800e-01  2.9403e+02  3.6572e+02  6.0214e+00  6.0188e+00  2.6176e-03  8.0311e-08  7.3231e-02  0.0000e+00  0.0000e+00  1.8498e-10
Flow time = 617.2s, time step = 3086
2914 more time steps

Updating solution at time level N... done.
Injecting 1648 particle parcels with mass 2e-11 at t = 617.2

Advancing DPM injections ....
number tracked = 1023608, escaped = 418, aborted = 0, trapped = 1157, evaporated = 0, incomplete = 0, incomplete_parallel = 0

  iter     time/iter
  step  flow-time  volflow_or  volflow_in volflow_cor     temp_p1    temp_max pressure_or pressure_dif pressure_cor mass_balance heat_balance      dpm_p2      dpm_or     dpm_cor
  3087  6.1740e+02 -2.1069e+00  2.1019e+00 -1.0800e-01  2.9403e+02  3.6572e+02  6.0214e+00  6.0188e+00  2.6176e-03  8.0311e-08  7.3231e-02  0.0000e+00  0.0000e+00  1.8499e-10
Flow time = 617.4s, time step = 3087
2913 more time steps

Updating solution at time level N... done.
Injecting 1648 particle parcels with mass 2e-11 at t = 617.4

Advancing DPM injections ....
number tracked = 1023681, escaped = 437, aborted = 0, trapped = 1177, evaporated = 0, incomplete = 0, incomplete_parallel = 0

  iter     time/iter
  step  flow-time  volflow_or  volflow_in volflow_cor     temp_p1    temp_max pressure_or pressure_dif pressure_cor mass_balance heat_balance      dpm_p2      dpm_or     dpm_cor
  3088  6.1760e+02 -2.1069e+00  2.1019e+00 -1.0800e-01  2.9403e+02  3.6572e+02  6.0214e+00  6.0188e+00  2.6176e-03  8.0311e-08  7.3231e-02  0.0000e+00  0.0000e+00  1.8499e-10
Flow time = 617.6s, time step = 3088
2912 more time steps

Updating solution at time level N... done.
Injecting 1648 particle parcels with mass 2e-11 at t = 617.6

Advancing DPM injections ....
number tracked = 1023715, escaped = 439, aborted = 0, trapped = 1178, evaporated = 0, incomplete = 0, incomplete_parallel = 0

  iter     time/iter
  step  flow-time  volflow_or  volflow_in volflow_cor     temp_p1    temp_max pressure_or pressure_dif pressure_cor mass_balance heat_balance      dpm_p2      dpm_or     dpm_cor
  3089  6.1780e+02 -2.1069e+00  2.1019e+00 -1.0800e-01  2.9403e+02  3.6572e+02  6.0214e+00  6.0188e+00  2.6176e-03  8.0311e-08  7.3231e-02  0.0000e+00  0.0000e+00  1.8500e-10
Flow time = 617.8s, time step = 3089
2911 more time steps

Updating solution at time level N... done.
Injecting 1648 particle parcels with mass 2e-11 at t = 617.8

Advancing DPM injections ....
number tracked = 1023746, escaped = 428, aborted = 0, trapped = 1202, evaporated = 0, incomplete = 0, incomplete_parallel = 0

  iter     time/iter
/file/read-macros controlruntime.scm
Loading "././controlruntime.scm"
/solve/execute-commands add-edit control-run-time Editing control-run-time
10 
Options: "iteration" "time-step"
"time-step"  "/file/read-macros controlruntime.scm"  Done.

> 
  step  flow-time  volflow_or  volflow_in volflow_cor     temp_p1    temp_max pressure_or pressure_dif pressure_cor mass_balance heat_balance      dpm_p2      dpm_or     dpm_cor
  3090  6.1800e+02 -2.1069e+00  2.1019e+00 -1.0800e-01  2.9403e+02  3.6572e+02  6.0214e+00  6.0188e+00  2.6176e-03  8.0311e-08  7.3231e-02  0.0000e+00  0.0000e+00  1.8500e-10
Flow time = 618s, time step = 3090
2910 more time steps

Updating solution at time level N... done.
Injecting 1648 particle parcels with mass 2e-11 at t = 618

Advancing DPM injections ....
number tracked = 1023764, escaped = 393, aborted = 0, trapped = 1159, evaporated = 0, incomplete = 0, incomplete_parallel = 0

  iter     time/iter
  step  flow-time  volflow_or  volflow_in volflow_cor     temp_p1    temp_max pressure_or pressure_dif pressure_cor mass_balance heat_balance      dpm_p2      dpm_or     dpm_cor
[...]
Flow time = 1194.6s, time step = 5973
27 more time steps

Updating solution at time level N... done.
Injecting 1648 particle parcels with mass 2e-11 at t = 1194.6

Advancing DPM injections ....
number tracked = 1057791, escaped = 438, aborted = 0, trapped = 1292, evaporated = 0, incomplete = 0, incomplete_parallel = 0

  iter     time/iter
  step  flow-time  volflow_or  volflow_in volflow_cor     temp_p1    temp_max pressure_or pressure_dif pressure_cor mass_balance heat_balance      dpm_p2      dpm_or     dpm_cor
  5974  1.1948e+03 -2.1069e+00  2.1019e+00 -1.0800e-01  2.9403e+02  3.6572e+02  6.0214e+00  6.0188e+00  2.6176e-03  8.0311e-08  7.3231e-02  0.0000e+00  0.0000e+00  1.9116e-10
Flow time = 1194.8s, time step = 5974
26 more time steps

Updating solution at time level N... done.
Injecting 1648 particle parcels with mass 2e-11 at t = 1194.8

Advancing DPM injections ....
number tracked = 1057709, escaped = 451, aborted = 0, trapped = 1198, evaporated = 0, incomplete = 0, incomplete_parallel = 0

  iter     time/iter
  step  flow-time  volflow_or  volflow_in volflow_cor     temp_p1    temp_max pressure_or pressure_dif pressure_cor mass_balance heat_balance      dpm_p2      dpm_or     dpm_cor
  5975  1.1950e+03 -2.1069e+00  2.1019e+00 -1.0800e-01  2.9403e+02  3.6572e+02  6.0214e+00  6.0188e+00  2.6176e-03  8.0311e-08  7.3231e-02  0.0000e+00  0.0000e+00  1.9115e-10
Flow time = 1195s, time step = 5975
25 more time steps

Updating solution at time level N... done.
Injecting 1648 particle parcels with mass 2e-11 at t = 1195

Advancing DPM injections ....
number tracked = 1057708, escaped = 409, aborted = 0, trapped = 1184, evaporated = 0, incomplete = 0, incomplete_parallel = 0

  iter     time/iter
  step  flow-time  volflow_or  volflow_in volflow_cor     temp_p1    temp_max pressure_or pressure_dif pressure_cor mass_balance heat_balance      dpm_p2      dpm_or     dpm_cor
  5976  1.1952e+03 -2.1069e+00  2.1019e+00 -1.0800e-01  2.9403e+02  3.6572e+02  6.0214e+00  6.0188e+00  2.6176e-03  8.0311e-08  7.3231e-02  0.0000e+00  0.0000e+00  1.9116e-10
Flow time = 1195.2s, time step = 5976
24 more time steps

Updating solution at time level N... done.
Injecting 1648 particle parcels with mass 2e-11 at t = 1195.2

Advancing DPM injections ....
number tracked = 1057763, escaped = 410, aborted = 0, trapped = 1180, evaporated = 0, incomplete = 0, incomplete_parallel = 0

  iter     time/iter
  step  flow-time  volflow_or  volflow_in volflow_cor     temp_p1    temp_max pressure_or pressure_dif pressure_cor mass_balance heat_balance      dpm_p2      dpm_or     dpm_cor
  5977  1.1954e+03 -2.1069e+00  2.1019e+00 -1.0800e-01  2.9403e+02  3.6572e+02  6.0214e+00  6.0188e+00  2.6176e-03  8.0311e-08  7.3231e-02  0.0000e+00  0.0000e+00  1.9117e-10
Flow time = 1195.4s, time step = 5977
23 more time steps

Updating solution at time level N... done.
Injecting 1648 particle parcels with mass 2e-11 at t = 1195.4

Advancing DPM injections ....
number tracked = 1057821, escaped = 423, aborted = 0, trapped = 1280, evaporated = 0, incomplete = 0, incomplete_parallel = 0

  iter     time/iter
  step  flow-time  volflow_or  volflow_in volflow_cor     temp_p1    temp_max pressure_or pressure_dif pressure_cor mass_balance heat_balance      dpm_p2      dpm_or     dpm_cor
  5978  1.1956e+03 -2.1069e+00  2.1019e+00 -1.0800e-01  2.9403e+02  3.6572e+02  6.0214e+00  6.0188e+00  2.6176e-03  8.0311e-08  7.3231e-02  0.0000e+00  0.0000e+00  1.9117e-10
Flow time = 1195.6s, time step = 5978
22 more time steps

Updating solution at time level N... done.
Injecting 1648 particle parcels with mass 2e-11 at t = 1195.6

Advancing DPM injections ....
number tracked = 1057766, escaped = 431, aborted = 0, trapped = 1263, evaporated = 0, incomplete = 0, incomplete_parallel = 0

  iter     time/iter
  step  flow-time  volflow_or  volflow_in volflow_cor     temp_p1    temp_max pressure_or pressure_dif pressure_cor mass_balance heat_balance      dpm_p2      dpm_or     dpm_cor
  5979  1.1958e+03 -2.1069e+00  2.1019e+00 -1.0800e-01  2.9403e+02  3.6572e+02  6.0214e+00  6.0188e+00  2.6176e-03  8.0311e-08  7.3231e-02  0.0000e+00  0.0000e+00  1.9116e-10
Flow time = 1195.8s, time step = 5979
21 more time steps

Updating solution at time level N... done.
Injecting 1648 particle parcels with mass 2e-11 at t = 1195.8

Advancing DPM injections ....
number tracked = 1057720, escaped = 453, aborted = 0, trapped = 1209, evaporated = 0, incomplete = 0, incomplete_parallel = 0

  iter     time/iter
/file/read-macros controlruntime.scm
Loading "././controlruntime.scm"
/solve/execute-commands add-edit control-run-time Editing control-run-time
10 
Options: "iteration" "time-step"
"time-step"  "/file/read-macros controlruntime.scm"  Done.

> 
  step  flow-time  volflow_or  volflow_in volflow_cor     temp_p1    temp_max pressure_or pressure_dif pressure_cor mass_balance heat_balance      dpm_p2      dpm_or     dpm_cor
  5980  1.1960e+03 -2.1069e+00  2.1019e+00 -1.0800e-01  2.9403e+02  3.6572e+02  6.0214e+00  6.0188e+00  2.6176e-03  8.0311e-08  7.3231e-02  0.0000e+00  0.0000e+00  1.9116e-10
Flow time = 1196s, time step = 5980
20 more time steps

Updating solution at time level N... done.
Injecting 1648 particle parcels with mass 2e-11 at t = 1196

Advancing DPM injections ....
number tracked = 1057706, escaped = 395, aborted = 0, trapped = 1199, evaporated = 0, incomplete = 0, incomplete_parallel = 0

  iter     time/iter
  step  flow-time  volflow_or  volflow_in volflow_cor     temp_p1    temp_max pressure_or pressure_dif pressure_cor mass_balance heat_balance      dpm_p2      dpm_or     dpm_cor
  5981  1.1962e+03 -2.1069e+00  2.1019e+00 -1.0800e-01  2.9403e+02  3.6572e+02  6.0214e+00  6.0188e+00  2.6176e-03  8.0311e-08  7.3231e-02  0.0000e+00  0.0000e+00  1.9116e-10
Flow time = 1196.2s, time step = 5981
19 more time steps

Updating solution at time level N... done.
Injecting 1648 particle parcels with mass 2e-11 at t = 1196.2

Advancing DPM injections ....
number tracked = 1057760, escaped = 402, aborted = 0, trapped = 1220, evaporated = 0, incomplete = 0, incomplete_parallel = 0

  iter     time/iter
  step  flow-time  volflow_or  volflow_in volflow_cor     temp_p1    temp_max pressure_or pressure_dif pressure_cor mass_balance heat_balance      dpm_p2      dpm_or     dpm_cor
  5982  1.1964e+03 -2.1069e+00  2.1019e+00 -1.0800e-01  2.9403e+02  3.6572e+02  6.0214e+00  6.0188e+00  2.6176e-03  8.0311e-08  7.3231e-02  0.0000e+00  0.0000e+00  1.9117e-10
Flow time = 1196.4s, time step = 5982
18 more time steps

Updating solution at time level N... done.
Injecting 1648 particle parcels with mass 2e-11 at t = 1196.4

Advancing DPM injections ....
number tracked = 1057786, escaped = 448, aborted = 0, trapped = 1208, evaporated = 0, incomplete = 0, incomplete_parallel = 0

  iter     time/iter
  step  flow-time  volflow_or  volflow_in volflow_cor     temp_p1    temp_max pressure_or pressure_dif pressure_cor mass_balance heat_balance      dpm_p2      dpm_or     dpm_cor
  5983  1.1966e+03 -2.1069e+00  2.1019e+00 -1.0800e-01  2.9403e+02  3.6572e+02  6.0214e+00  6.0188e+00  2.6176e-03  8.0311e-08  7.3231e-02  0.0000e+00  0.0000e+00  1.9117e-10
Flow time = 1196.6s, time step = 5983
17 more time steps

Updating solution at time level N... done.
Injecting 1648 particle parcels with mass 2e-11 at t = 1196.6

Advancing DPM injections ....
number tracked = 1057778, escaped = 437, aborted = 0, trapped = 1259, evaporated = 0, incomplete = 0, incomplete_parallel = 0

  iter     time/iter
  step  flow-time  volflow_or  volflow_in volflow_cor     temp_p1    temp_max pressure_or pressure_dif pressure_cor mass_balance heat_balance      dpm_p2      dpm_or     dpm_cor
  5984  1.1968e+03 -2.1069e+00  2.1019e+00 -1.0800e-01  2.9403e+02  3.6572e+02  6.0214e+00  6.0188e+00  2.6176e-03  8.0311e-08  7.3231e-02  0.0000e+00  0.0000e+00  1.9116e-10
Flow time = 1196.8s, time step = 5984
16 more time steps

Updating solution at time level N... done.
Injecting 1648 particle parcels with mass 2e-11 at t = 1196.8

Advancing DPM injections ....
number tracked = 1057730, escaped = 440, aborted = 0, trapped = 1260, evaporated = 0, incomplete = 0, incomplete_parallel = 0

  iter     time/iter
  step  flow-time  volflow_or  volflow_in volflow_cor     temp_p1    temp_max pressure_or pressure_dif pressure_cor mass_balance heat_balance      dpm_p2      dpm_or     dpm_cor
  5985  1.1970e+03 -2.1069e+00  2.1019e+00 -1.0800e-01  2.9403e+02  3.6572e+02  6.0214e+00  6.0188e+00  2.6176e-03  8.0311e-08  7.3231e-02  0.0000e+00  0.0000e+00  1.9115e-10
Flow time = 1197s, time step = 5985
15 more time steps

Updating solution at time level N... done.
Injecting 1648 particle parcels with mass 2e-11 at t = 1197

Advancing DPM injections ....
number tracked = 1057678, escaped = 419, aborted = 0, trapped = 1198, evaporated = 0, incomplete = 0, incomplete_parallel = 0

  iter     time/iter
  step  flow-time  volflow_or  volflow_in volflow_cor     temp_p1    temp_max pressure_or pressure_dif pressure_cor mass_balance heat_balance      dpm_p2      dpm_or     dpm_cor
  5986  1.1972e+03 -2.1069e+00  2.1019e+00 -1.0800e-01  2.9403e+02  3.6572e+02  6.0214e+00  6.0188e+00  2.6176e-03  8.0311e-08  7.3231e-02  0.0000e+00  0.0000e+00  1.9114e-10
Flow time = 1197.2s, time step = 5986
14 more time steps

Updating solution at time level N... done.
Injecting 1648 particle parcels with mass 2e-11 at t = 1197.2

Advancing DPM injections ....
number tracked = 1057709, escaped = 443, aborted = 0, trapped = 1164, evaporated = 0, incomplete = 0, incomplete_parallel = 0

  iter     time/iter
  step  flow-time  volflow_or  volflow_in volflow_cor     temp_p1    temp_max pressure_or pressure_dif pressure_cor mass_balance heat_balance      dpm_p2      dpm_or     dpm_cor
  5987  1.1974e+03 -2.1069e+00  2.1019e+00 -1.0800e-01  2.9403e+02  3.6572e+02  6.0214e+00  6.0188e+00  2.6176e-03  8.0311e-08  7.3231e-02  0.0000e+00  0.0000e+00  1.9116e-10
Flow time = 1197.4s, time step = 5987
13 more time steps

Updating solution at time level N... done.
Injecting 1648 particle parcels with mass 2e-11 at t = 1197.4

Advancing DPM injections ....
number tracked = 1057750, escaped = 419, aborted = 0, trapped = 1202, evaporated = 0, incomplete = 0, incomplete_parallel = 0

  iter     time/iter
  step  flow-time  volflow_or  volflow_in volflow_cor     temp_p1    temp_max pressure_or pressure_dif pressure_cor mass_balance heat_balance      dpm_p2      dpm_or     dpm_cor
  5988  1.1976e+03 -2.1069e+00  2.1019e+00 -1.0800e-01  2.9403e+02  3.6572e+02  6.0214e+00  6.0188e+00  2.6176e-03  8.0311e-08  7.3231e-02  0.0000e+00  0.0000e+00  1.9116e-10
Flow time = 1197.6s, time step = 5988
12 more time steps

Updating solution at time level N... done.
Injecting 1648 particle parcels with mass 2e-11 at t = 1197.6

Advancing DPM injections ....
number tracked = 1057777, escaped = 456, aborted = 0, trapped = 1207, evaporated = 0, incomplete = 0, incomplete_parallel = 0

  iter     time/iter
  step  flow-time  volflow_or  volflow_in volflow_cor     temp_p1    temp_max pressure_or pressure_dif pressure_cor mass_balance heat_balance      dpm_p2      dpm_or     dpm_cor
  5989  1.1978e+03 -2.1069e+00  2.1019e+00 -1.0800e-01  2.9403e+02  3.6572e+02  6.0214e+00  6.0188e+00  2.6176e-03  8.0311e-08  7.3231e-02  0.0000e+00  0.0000e+00  1.9117e-10
Flow time = 1197.8s, time step = 5989
11 more time steps

Updating solution at time level N... done.
Injecting 1648 particle parcels with mass 2e-11 at t = 1197.8

Advancing DPM injections ....
number tracked = 1057762, escaped = 408, aborted = 0, trapped = 1202, evaporated = 0, incomplete = 0, incomplete_parallel = 0

  iter     time/iter
/file/read-macros controlruntime.scm
Loading "././controlruntime.scm"
/solve/execute-commands add-edit control-run-time Editing control-run-time
10 
Options: "iteration" "time-step"
"time-step"  "/file/read-macros controlruntime.scm"  Done.

> 
  step  flow-time  volflow_or  volflow_in volflow_cor     temp_p1    temp_max pressure_or pressure_dif pressure_cor mass_balance heat_balance      dpm_p2      dpm_or     dpm_cor
  5990  1.1980e+03 -2.1069e+00  2.1019e+00 -1.0800e-01  2.9403e+02  3.6572e+02  6.0214e+00  6.0188e+00  2.6176e-03  8.0311e-08  7.3231e-02  0.0000e+00  0.0000e+00  1.9117e-10
Flow time = 1198s, time step = 5990
10 more time steps

Updating solution at time level N... done.
Injecting 1648 particle parcels with mass 2e-11 at t = 1198

Advancing DPM injections ....
number tracked = 1057800, escaped = 448, aborted = 0, trapped = 1189, evaporated = 0, incomplete = 0, incomplete_parallel = 0

  iter     time/iter
  step  flow-time  volflow_or  volflow_in volflow_cor     temp_p1    temp_max pressure_or pressure_dif pressure_cor mass_balance heat_balance      dpm_p2      dpm_or     dpm_cor
  5991  1.1982e+03 -2.1069e+00  2.1019e+00 -1.0800e-01  2.9403e+02  3.6572e+02  6.0214e+00  6.0188e+00  2.6176e-03  8.0311e-08  7.3231e-02  0.0000e+00  0.0000e+00  1.9117e-10
Flow time = 1198.2s, time step = 5991
9 more time steps

Updating solution at time level N... done.
Injecting 1648 particle parcels with mass 2e-11 at t = 1198.2

Advancing DPM injections ....
number tracked = 1057811, escaped = 454, aborted = 0, trapped = 1220, evaporated = 0, incomplete = 0, incomplete_parallel = 0

  iter     time/iter
  step  flow-time  volflow_or  volflow_in volflow_cor     temp_p1    temp_max pressure_or pressure_dif pressure_cor mass_balance heat_balance      dpm_p2      dpm_or     dpm_cor
  5992  1.1984e+03 -2.1069e+00  2.1019e+00 -1.0800e-01  2.9403e+02  3.6572e+02  6.0214e+00  6.0188e+00  2.6176e-03  8.0311e-08  7.3231e-02  0.0000e+00  0.0000e+00  1.9117e-10
Flow time = 1198.4s, time step = 5992
8 more time steps

Updating solution at time level N... done.
Injecting 1648 particle parcels with mass 2e-11 at t = 1198.4

Advancing DPM injections ....
number tracked = 1057785, escaped = 453, aborted = 0, trapped = 1195, evaporated = 0, incomplete = 0, incomplete_parallel = 0

  iter     time/iter
  step  flow-time  volflow_or  volflow_in volflow_cor     temp_p1    temp_max pressure_or pressure_dif pressure_cor mass_balance heat_balance      dpm_p2      dpm_or     dpm_cor
  5993  1.1986e+03 -2.1069e+00  2.1019e+00 -1.0800e-01  2.9403e+02  3.6572e+02  6.0214e+00  6.0188e+00  2.6176e-03  8.0311e-08  7.3231e-02  0.0000e+00  0.0000e+00  1.9117e-10
Flow time = 1198.6s, time step = 5993
7 more time steps

Updating solution at time level N... done.
Injecting 1648 particle parcels with mass 2e-11 at t = 1198.6

Advancing DPM injections ....
number tracked = 1057785, escaped = 419, aborted = 0, trapped = 1244, evaporated = 0, incomplete = 0, incomplete_parallel = 0

  iter     time/iter
  step  flow-time  volflow_or  volflow_in volflow_cor     temp_p1    temp_max pressure_or pressure_dif pressure_cor mass_balance heat_balance      dpm_p2      dpm_or     dpm_cor
  5994  1.1988e+03 -2.1069e+00  2.1019e+00 -1.0800e-01  2.9403e+02  3.6572e+02  6.0214e+00  6.0188e+00  2.6176e-03  8.0311e-08  7.3231e-02  0.0000e+00  0.0000e+00  1.9116e-10
Flow time = 1198.8s, time step = 5994
6 more time steps

Updating solution at time level N... done.
Injecting 1648 particle parcels with mass 2e-11 at t = 1198.8

Advancing DPM injections ....
number tracked = 1057770, escaped = 434, aborted = 0, trapped = 1237, evaporated = 0, incomplete = 0, incomplete_parallel = 0

  iter     time/iter
  step  flow-time  volflow_or  volflow_in volflow_cor     temp_p1    temp_max pressure_or pressure_dif pressure_cor mass_balance heat_balance      dpm_p2      dpm_or     dpm_cor
  5995  1.1990e+03 -2.1069e+00  2.1019e+00 -1.0800e-01  2.9403e+02  3.6572e+02  6.0214e+00  6.0188e+00  2.6176e-03  8.0311e-08  7.3231e-02  0.0000e+00  0.0000e+00  1.9116e-10
Flow time = 1199s, time step = 5995
5 more time steps

Updating solution at time level N... done.
Injecting 1648 particle parcels with mass 2e-11 at t = 1199

Advancing DPM injections ....
number tracked = 1057747, escaped = 466, aborted = 0, trapped = 1202, evaporated = 0, incomplete = 0, incomplete_parallel = 0

  iter     time/iter
  step  flow-time  volflow_or  volflow_in volflow_cor     temp_p1    temp_max pressure_or pressure_dif pressure_cor mass_balance heat_balance      dpm_p2      dpm_or     dpm_cor
  5996  1.1992e+03 -2.1069e+00  2.1019e+00 -1.0800e-01  2.9403e+02  3.6572e+02  6.0214e+00  6.0188e+00  2.6176e-03  8.0311e-08  7.3231e-02  0.0000e+00  0.0000e+00  1.9116e-10
Flow time = 1199.2s, time step = 5996
4 more time steps

Updating solution at time level N... done.
Injecting 1648 particle parcels with mass 2e-11 at t = 1199.2

Advancing DPM injections ....
number tracked = 1057727, escaped = 444, aborted = 0, trapped = 1235, evaporated = 0, incomplete = 0, incomplete_parallel = 0

  iter     time/iter
  step  flow-time  volflow_or  volflow_in volflow_cor     temp_p1    temp_max pressure_or pressure_dif pressure_cor mass_balance heat_balance      dpm_p2      dpm_or     dpm_cor
  5997  1.1994e+03 -2.1069e+00  2.1019e+00 -1.0800e-01  2.9403e+02  3.6572e+02  6.0214e+00  6.0188e+00  2.6176e-03  8.0311e-08  7.3231e-02  0.0000e+00  0.0000e+00  1.9116e-10
Flow time = 1199.4s, time step = 5997
3 more time steps

Updating solution at time level N... done.
Injecting 1648 particle parcels with mass 2e-11 at t = 1199.4

Advancing DPM injections ....
number tracked = 1057696, escaped = 414, aborted = 0, trapped = 1200, evaporated = 0, incomplete = 0, incomplete_parallel = 0

  iter     time/iter
  step  flow-time  volflow_or  volflow_in volflow_cor     temp_p1    temp_max pressure_or pressure_dif pressure_cor mass_balance heat_balance      dpm_p2      dpm_or     dpm_cor
  5998  1.1996e+03 -2.1069e+00  2.1019e+00 -1.0800e-01  2.9403e+02  3.6572e+02  6.0214e+00  6.0188e+00  2.6176e-03  8.0311e-08  7.3231e-02  0.0000e+00  0.0000e+00  1.9116e-10
Flow time = 1199.6s, time step = 5998
2 more time steps

Updating solution at time level N... done.
Injecting 1648 particle parcels with mass 2e-11 at t = 1199.6

Advancing DPM injections ....
number tracked = 1057730, escaped = 448, aborted = 0, trapped = 1210, evaporated = 0, incomplete = 0, incomplete_parallel = 0

  iter     time/iter
  step  flow-time  volflow_or  volflow_in volflow_cor     temp_p1    temp_max pressure_or pressure_dif pressure_cor mass_balance heat_balance      dpm_p2      dpm_or     dpm_cor
  5999  1.1998e+03 -2.1069e+00  2.1019e+00 -1.0800e-01  2.9403e+02  3.6572e+02  6.0214e+00  6.0188e+00  2.6176e-03  8.0311e-08  7.3231e-02  0.0000e+00  0.0000e+00  1.9115e-10
Flow time = 1199.8s, time step = 5999
1 more time step

Updating solution at time level N... done.
Injecting 1648 particle parcels with mass 2e-11 at t = 1199.8

Advancing DPM injections ....
number tracked = 1057720, escaped = 423, aborted = 0, trapped = 1214, evaporated = 0, incomplete = 0, incomplete_parallel = 0

  iter     time/iter
/file/read-macros controlruntime.scm
Loading "././controlruntime.scm"
/solve/execute-commands add-edit control-run-time Editing control-run-time
10 
Options: "iteration" "time-step"
"time-step"  "/file/read-macros controlruntime.scm"  Done.

> 
Host receiving summary from compute node zero.

Writing "| gzip -2cfv > \"OR-COR-5-06000.dat.gz\""...

Done.

  step  flow-time  volflow_or  volflow_in volflow_cor     temp_p1    temp_max pressure_or pressure_dif pressure_cor mass_balance heat_balance      dpm_p2      dpm_or     dpm_cor
  6000  1.2000e+03 -2.1069e+00  2.1019e+00 -1.0800e-01  2.9403e+02  3.6572e+02  6.0214e+00  6.0188e+00  2.6176e-03  8.0311e-08  7.3231e-02  0.0000e+00  0.0000e+00  1.9115e-10
Flow time = 1200s, time step = 6000
, invalid command [,]
, , , 

> ;
;
; solve/dpm-update
; report/dpm-summary
;
;
;
;
; file/confirm-overwrite yes
; file/write-case OR-COR.cas.gz yes
; file/write-data OR-COR.dat.gz yes
;
;
exit 
Posting ANSYS Product Improvement Program performance data 
Done.
